Get the name of the MODPATH simulation file.
Read the first two records of the simulation file to get mpnamFile and mplistFile ...
Allocate rectangular unstructured grid component.
Allocate time discretization data component ...
Allocate disMf6Grid.
Read DIS binary grid file.
Read time discretization data component ...
 
 ----------------------------------------------------------
 Cell connection data:
 ----------------------------------------------------------
 Format has two lines for each cell, listed by cell number.
 Line 1: Cell connections
 Line 1: Face assignment codes
 ----------------------------------------------------------
        1     141    9801
        0   30101   50101
 


 


 


 


 


 


 


 


 


 


 


 


 


 


 


 


 


 


 


 


 


 


 


 


 


 
       27      28     167    9827
        0   20101   30101   50101
 
       28      27      29     168    9828
        0   10101   20101   30101   50101
 
       29      28      30     169    9829
        0   10101   20101   30101   50101
 
       30      29      31     170    9830
        0   10101   20101   30101   50101
 
       31      30      32     171    9831
        0   10101   20101   30101   50101
 
       32      31      33     172    9832
        0   10101   20101   30101   50101
 
       33      32      34     173    9833
        0   10101   20101   30101   50101
 
       34      33      35     174    9834
        0   10101   20101   30101   50101
 
       35      34      36     175    9835
        0   10101   20101   30101   50101
 
       36      35      37     176    9836
        0   10101   20101   30101   50101
 
       37      36      38     177    9837
        0   10101   20101   30101   50101
 
       38      37      39     178    9838
        0   10101   20101   30101   50101
 
       39      38      40     179    9839
        0   10101   20101   30101   50101
 
       40      39      41     180    9840
        0   10101   20101   30101   50101
 
       41      40      42     181    9841
        0   10101   20101   30101   50101
 
       42      41      43     182    9842
        0   10101   20101   30101   50101
 
       43      42      44     183    9843
        0   10101   20101   30101   50101
 
       44      43      45     184    9844
        0   10101   20101   30101   50101
 
       45      44      46     185    9845
        0   10101   20101   30101   50101
 
       46      45      47     186    9846
        0   10101   20101   30101   50101
 
       47      46      48     187    9847
        0   10101   20101   30101   50101
 
       48      47      49     188    9848
        0   10101   20101   30101   50101
 
       49      48      50     189    9849
        0   10101   20101   30101   50101
 
       50      49      51     190    9850
        0   10101   20101   30101   50101
 
       51      50      52     191    9851
        0   10101   20101   30101   50101
 
       52      51      53     192    9852
        0   10101   20101   30101   50101
 
       53      52      54     193    9853
        0   10101   20101   30101   50101
 
       54      53      55     194    9854
        0   10101   20101   30101   50101
 
       55      54      56     195    9855
        0   10101   20101   30101   50101
 
       56      55      57     196    9856
        0   10101   20101   30101   50101
 
       57      56      58     197    9857
        0   10101   20101   30101   50101
 
       58      57      59     198    9858
        0   10101   20101   30101   50101
 
       59      58      60     199    9859
        0   10101   20101   30101   50101
 
       60      59      61     200    9860
        0   10101   20101   30101   50101
 
       61      60      62     201    9861
        0   10101   20101   30101   50101
 
       62      61      63     202    9862
        0   10101   20101   30101   50101
 
       63      62      64     203    9863
        0   10101   20101   30101   50101
 
       64      63      65     204    9864
        0   10101   20101   30101   50101
 
       65      64      66     205    9865
        0   10101   20101   30101   50101
 
       66      65      67     206    9866
        0   10101   20101   30101   50101
 
       67      66      68     207    9867
        0   10101   20101   30101   50101
 
       68      67      69     208    9868
        0   10101   20101   30101   50101
 
       69      68      70     209    9869
        0   10101   20101   30101   50101
 
       70      69      71     210    9870
        0   10101   20101   30101   50101
 
       71      70      72     211    9871
        0   10101   20101   30101   50101
 
       72      71      73     212    9872
        0   10101   20101   30101   50101
 
       73      72      74     213    9873
        0   10101   20101   30101   50101
 
       74      73      75     214    9874
        0   10101   20101   30101   50101
 
       75      74      76     215    9875
        0   10101   20101   30101   50101
 
       76      75      77     216    9876
        0   10101   20101   30101   50101
 
       77      76      78     217    9877
        0   10101   20101   30101   50101
 
       78      77      79     218    9878
        0   10101   20101   30101   50101
 
       79      78      80     219    9879
        0   10101   20101   30101   50101
 
       80      79      81     220    9880
        0   10101   20101   30101   50101
 
       81      80      82     221    9881
        0   10101   20101   30101   50101
 
       82      81      83     222    9882
        0   10101   20101   30101   50101
 
       83      82      84     223    9883
        0   10101   20101   30101   50101
 
       84      83      85     224    9884
        0   10101   20101   30101   50101
 
       85      84      86     225    9885
        0   10101   20101   30101   50101
 
       86      85      87     226    9886
        0   10101   20101   30101   50101
 
       87      86      88     227    9887
        0   10101   20101   30101   50101
 
       88      87      89     228    9888
        0   10101   20101   30101   50101
 
       89      88      90     229    9889
        0   10101   20101   30101   50101
 
       90      89      91     230    9890
        0   10101   20101   30101   50101
 
       91      90      92     231    9891
        0   10101   20101   30101   50101
 
       92      91      93     232    9892
        0   10101   20101   30101   50101
 
       93      92      94     233    9893
        0   10101   20101   30101   50101
 
       94      93      95     234    9894
        0   10101   20101   30101   50101
 
       95      94      96     235    9895
        0   10101   20101   30101   50101
 
       96      95      97     236    9896
        0   10101   20101   30101   50101
 
       97      96      98     237    9897
        0   10101   20101   30101   50101
 
       98      97      99     238    9898
        0   10101   20101   30101   50101
 
       99      98     100     239    9899
        0   10101   20101   30101   50101
 
      100      99     101     240    9900
        0   10101   20101   30101   50101
 
      101     100     102     241    9901
        0   10101   20101   30101   50101
 
      102     101     103     242    9902
        0   10101   20101   30101   50101
 
      103     102     104     243    9903
        0   10101   20101   30101   50101
 
      104     103     105     244    9904
        0   10101   20101   30101   50101
 
      105     104     106     245    9905
        0   10101   20101   30101   50101
 
      106     105     107     246    9906
        0   10101   20101   30101   50101
 
      107     106     108     247    9907
        0   10101   20101   30101   50101
 
      108     107     109     248    9908
        0   10101   20101   30101   50101
 
      109     108     110     249    9909
        0   10101   20101   30101   50101
 
      110     109     111     250    9910
        0   10101   20101   30101   50101
 
      111     110     112     251    9911
        0   10101   20101   30101   50101
 
      112     111     113     252    9912
        0   10101   20101   30101   50101
 
      113     112     114     253    9913
        0   10101   20101   30101   50101
 
      114     113     115     254    9914
        0   10101   20101   30101   50101
 
      115     114     116     255    9915
        0   10101   20101   30101   50101
 
      116     115     117     256    9916
        0   10101   20101   30101   50101
 
      117     116     118     257    9917
        0   10101   20101   30101   50101
 
      118     117     119     258    9918
        0   10101   20101   30101   50101
 
      119     118     120     259    9919
        0   10101   20101   30101   50101
 
      120     119     121     260    9920
        0   10101   20101   30101   50101
 
      121     120     122     261    9921
        0   10101   20101   30101   50101
 
      122     121     123     262    9922
        0   10101   20101   30101   50101
 
      123     122     124     263    9923
        0   10101   20101   30101   50101
 
      124     123     264    9924
        0   10101   30101   50101
 


 


 


 


 


 


 


 


 


 


 


 


 


 


 


 
      140     280    9940
        0   30101   50101
 
      141       1     142     281    9941
        0   40101   20101   30101   50101
 
      142     141     282    9942
        0   10101   30101   50101
 


 


 


 


 


 


 


 


 


 


 


 


 


 


 


 


 


 


 


 


 


 


 


 
      166     167     306    9966
        0   20101   30101   50101
 
      167      27     166     168     307    9967
        0   40101   10101   20101   30101   50101
 
      168      28     167     169     308    9968
        0   40101   10101   20101   30101   50101
 
      169      29     168     170     309    9969
        0   40101   10101   20101   30101   50101
 
      170      30     169     171     310    9970
        0   40101   10101   20101   30101   50101
 
      171      31     170     172     311    9971
        0   40101   10101   20101   30101   50101
 
      172      32     171     173     312    9972
        0   40101   10101   20101   30101   50101
 
      173      33     172     174     313    9973
        0   40101   10101   20101   30101   50101
 
      174      34     173     175     314    9974
        0   40101   10101   20101   30101   50101
 
      175      35     174     176     315    9975
        0   40101   10101   20101   30101   50101
 
      176      36     175     177     316    9976
        0   40101   10101   20101   30101   50101
 
      177      37     176     178     317    9977
        0   40101   10101   20101   30101   50101
 
      178      38     177     179     318    9978
        0   40101   10101   20101   30101   50101
 
      179      39     178     180     319    9979
        0   40101   10101   20101   30101   50101
 
      180      40     179     181     320    9980
        0   40101   10101   20101   30101   50101
 
      181      41     180     182     321    9981
        0   40101   10101   20101   30101   50101
 
      182      42     181     183     322    9982
        0   40101   10101   20101   30101   50101
 
      183      43     182     184     323    9983
        0   40101   10101   20101   30101   50101
 
      184      44     183     185     324    9984
        0   40101   10101   20101   30101   50101
 
      185      45     184     186     325    9985
        0   40101   10101   20101   30101   50101
 
      186      46     185     187     326    9986
        0   40101   10101   20101   30101   50101
 
      187      47     186     188     327    9987
        0   40101   10101   20101   30101   50101
 
      188      48     187     189     328    9988
        0   40101   10101   20101   30101   50101
 
      189      49     188     190     329    9989
        0   40101   10101   20101   30101   50101
 
      190      50     189     191     330    9990
        0   40101   10101   20101   30101   50101
 
      191      51     190     192     331    9991
        0   40101   10101   20101   30101   50101
 
      192      52     191     193     332    9992
        0   40101   10101   20101   30101   50101
 
      193      53     192     194     333    9993
        0   40101   10101   20101   30101   50101
 
      194      54     193     195     334    9994
        0   40101   10101   20101   30101   50101
 
      195      55     194     196     335    9995
        0   40101   10101   20101   30101   50101
 
      196      56     195     197     336    9996
        0   40101   10101   20101   30101   50101
 
      197      57     196     198     337    9997
        0   40101   10101   20101   30101   50101
 
      198      58     197     199     338    9998
        0   40101   10101   20101   30101   50101
 
      199      59     198     200     339    9999
        0   40101   10101   20101   30101   50101
 
      200      60     199     201     340   10000
        0   40101   10101   20101   30101   50101
 
      201      61     200     202     341   10001
        0   40101   10101   20101   30101   50101
 
      202      62     201     203     342   10002
        0   40101   10101   20101   30101   50101
 
      203      63     202     204     343   10003
        0   40101   10101   20101   30101   50101
 
      204      64     203     205     344   10004
        0   40101   10101   20101   30101   50101
 
      205      65     204     206     345   10005
        0   40101   10101   20101   30101   50101
 
      206      66     205     207     346   10006
        0   40101   10101   20101   30101   50101
 
      207      67     206     208     347   10007
        0   40101   10101   20101   30101   50101
 
      208      68     207     209     348   10008
        0   40101   10101   20101   30101   50101
 
      209      69     208     210     349   10009
        0   40101   10101   20101   30101   50101
 
      210      70     209     211     350   10010
        0   40101   10101   20101   30101   50101
 
      211      71     210     212     351   10011
        0   40101   10101   20101   30101   50101
 
      212      72     211     213     352   10012
        0   40101   10101   20101   30101   50101
 
      213      73     212     214     353   10013
        0   40101   10101   20101   30101   50101
 
      214      74     213     215     354   10014
        0   40101   10101   20101   30101   50101
 
      215      75     214     216     355   10015
        0   40101   10101   20101   30101   50101
 
      216      76     215     217     356   10016
        0   40101   10101   20101   30101   50101
 
      217      77     216     218     357   10017
        0   40101   10101   20101   30101   50101
 
      218      78     217     219     358   10018
        0   40101   10101   20101   30101   50101
 
      219      79     218     220     359   10019
        0   40101   10101   20101   30101   50101
 
      220      80     219     221     360   10020
        0   40101   10101   20101   30101   50101
 
      221      81     220     222     361   10021
        0   40101   10101   20101   30101   50101
 
      222      82     221     223     362   10022
        0   40101   10101   20101   30101   50101
 
      223      83     222     224     363   10023
        0   40101   10101   20101   30101   50101
 
      224      84     223     225     364   10024
        0   40101   10101   20101   30101   50101
 
      225      85     224     226     365   10025
        0   40101   10101   20101   30101   50101
 
      226      86     225     227     366   10026
        0   40101   10101   20101   30101   50101
 
      227      87     226     228     367   10027
        0   40101   10101   20101   30101   50101
 
      228      88     227     229     368   10028
        0   40101   10101   20101   30101   50101
 
      229      89     228     230     369   10029
        0   40101   10101   20101   30101   50101
 
      230      90     229     231     370   10030
        0   40101   10101   20101   30101   50101
 
      231      91     230     232     371   10031
        0   40101   10101   20101   30101   50101
 
      232      92     231     233     372   10032
        0   40101   10101   20101   30101   50101
 
      233      93     232     234     373   10033
        0   40101   10101   20101   30101   50101
 
      234      94     233     235     374   10034
        0   40101   10101   20101   30101   50101
 
      235      95     234     236     375   10035
        0   40101   10101   20101   30101   50101
 
      236      96     235     237     376   10036
        0   40101   10101   20101   30101   50101
 
      237      97     236     238     377   10037
        0   40101   10101   20101   30101   50101
 
      238      98     237     239     378   10038
        0   40101   10101   20101   30101   50101
 
      239      99     238     240     379   10039
        0   40101   10101   20101   30101   50101
 
      240     100     239     241     380   10040
        0   40101   10101   20101   30101   50101
 
      241     101     240     242     381   10041
        0   40101   10101   20101   30101   50101
 
      242     102     241     243     382   10042
        0   40101   10101   20101   30101   50101
 
      243     103     242     244     383   10043
        0   40101   10101   20101   30101   50101
 
      244     104     243     245     384   10044
        0   40101   10101   20101   30101   50101
 
      245     105     244     246     385   10045
        0   40101   10101   20101   30101   50101
 
      246     106     245     247     386   10046
        0   40101   10101   20101   30101   50101
 
      247     107     246     248     387   10047
        0   40101   10101   20101   30101   50101
 
      248     108     247     249     388   10048
        0   40101   10101   20101   30101   50101
 
      249     109     248     250     389   10049
        0   40101   10101   20101   30101   50101
 
      250     110     249     251     390   10050
        0   40101   10101   20101   30101   50101
 
      251     111     250     252     391   10051
        0   40101   10101   20101   30101   50101
 
      252     112     251     253     392   10052
        0   40101   10101   20101   30101   50101
 
      253     113     252     254     393   10053
        0   40101   10101   20101   30101   50101
 
      254     114     253     255     394   10054
        0   40101   10101   20101   30101   50101
 
      255     115     254     256     395   10055
        0   40101   10101   20101   30101   50101
 
      256     116     255     257     396   10056
        0   40101   10101   20101   30101   50101
 
      257     117     256     258     397   10057
        0   40101   10101   20101   30101   50101
 
      258     118     257     259     398   10058
        0   40101   10101   20101   30101   50101
 
      259     119     258     260     399   10059
        0   40101   10101   20101   30101   50101
 
      260     120     259     261     400   10060
        0   40101   10101   20101   30101   50101
 
      261     121     260     262     401   10061
        0   40101   10101   20101   30101   50101
 
      262     122     261     263     402   10062
        0   40101   10101   20101   30101   50101
 
      263     123     262     264     403   10063
        0   40101   10101   20101   30101   50101
 
      264     124     263     265     404   10064
        0   40101   10101   20101   30101   50101
 
      265     264     405   10065
        0   10101   30101   50101
 


 


 


 


 


 


 


 


 


 


 


 


 


 


 
      280     140     420   10080
        0   40101   30101   50101
 
      281     141     282     421   10081
        0   40101   20101   30101   50101
 
      282     142     281     283     422   10082
        0   40101   10101   20101   30101   50101
 
      283     282     423   10083
        0   10101   30101   50101
 


 


 


 


 


 


 


 


 


 


 


 


 


 


 


 


 


 


 


 


 


 
      305     306     445   10105
        0   20101   30101   50101
 
      306     166     305     307     446   10106
        0   40101   10101   20101   30101   50101
 
      307     167     306     308     447   10107
        0   40101   10101   20101   30101   50101
 
      308     168     307     309     448   10108
        0   40101   10101   20101   30101   50101
 
      309     169     308     310     449   10109
        0   40101   10101   20101   30101   50101
 
      310     170     309     311     450   10110
        0   40101   10101   20101   30101   50101
 
      311     171     310     312     451   10111
        0   40101   10101   20101   30101   50101
 
      312     172     311     313     452   10112
        0   40101   10101   20101   30101   50101
 
      313     173     312     314     453   10113
        0   40101   10101   20101   30101   50101
 
      314     174     313     315     454   10114
        0   40101   10101   20101   30101   50101
 
      315     175     314     316     455   10115
        0   40101   10101   20101   30101   50101
 
      316     176     315     317     456   10116
        0   40101   10101   20101   30101   50101
 
      317     177     316     318     457   10117
        0   40101   10101   20101   30101   50101
 
      318     178     317     319     458   10118
        0   40101   10101   20101   30101   50101
 
      319     179     318     320     459   10119
        0   40101   10101   20101   30101   50101
 
      320     180     319     321     460   10120
        0   40101   10101   20101   30101   50101
 
      321     181     320     322     461   10121
        0   40101   10101   20101   30101   50101
 
      322     182     321     323     462   10122
        0   40101   10101   20101   30101   50101
 
      323     183     322     324     463   10123
        0   40101   10101   20101   30101   50101
 
      324     184     323     325     464   10124
        0   40101   10101   20101   30101   50101
 
      325     185     324     326     465   10125
        0   40101   10101   20101   30101   50101
 
      326     186     325     327     466   10126
        0   40101   10101   20101   30101   50101
 
      327     187     326     328     467   10127
        0   40101   10101   20101   30101   50101
 
      328     188     327     329     468   10128
        0   40101   10101   20101   30101   50101
 
      329     189     328     330     469   10129
        0   40101   10101   20101   30101   50101
 
      330     190     329     331     470   10130
        0   40101   10101   20101   30101   50101
 
      331     191     330     332     471   10131
        0   40101   10101   20101   30101   50101
 
      332     192     331     333     472   10132
        0   40101   10101   20101   30101   50101
 
      333     193     332     334     473   10133
        0   40101   10101   20101   30101   50101
 
      334     194     333     335     474   10134
        0   40101   10101   20101   30101   50101
 
      335     195     334     336     475   10135
        0   40101   10101   20101   30101   50101
 
      336     196     335     337     476   10136
        0   40101   10101   20101   30101   50101
 
      337     197     336     338     477   10137
        0   40101   10101   20101   30101   50101
 
      338     198     337     339     478   10138
        0   40101   10101   20101   30101   50101
 
      339     199     338     340     479   10139
        0   40101   10101   20101   30101   50101
 
      340     200     339     341     480   10140
        0   40101   10101   20101   30101   50101
 
      341     201     340     342     481   10141
        0   40101   10101   20101   30101   50101
 
      342     202     341     343     482   10142
        0   40101   10101   20101   30101   50101
 
      343     203     342     344     483   10143
        0   40101   10101   20101   30101   50101
 
      344     204     343     345     484   10144
        0   40101   10101   20101   30101   50101
 
      345     205     344     346     485   10145
        0   40101   10101   20101   30101   50101
 
      346     206     345     347     486   10146
        0   40101   10101   20101   30101   50101
 
      347     207     346     348     487   10147
        0   40101   10101   20101   30101   50101
 
      348     208     347     349     488   10148
        0   40101   10101   20101   30101   50101
 
      349     209     348     350     489   10149
        0   40101   10101   20101   30101   50101
 
      350     210     349     351     490   10150
        0   40101   10101   20101   30101   50101
 
      351     211     350     352     491   10151
        0   40101   10101   20101   30101   50101
 
      352     212     351     353     492   10152
        0   40101   10101   20101   30101   50101
 
      353     213     352     354     493   10153
        0   40101   10101   20101   30101   50101
 
      354     214     353     355     494   10154
        0   40101   10101   20101   30101   50101
 
      355     215     354     356     495   10155
        0   40101   10101   20101   30101   50101
 
      356     216     355     357     496   10156
        0   40101   10101   20101   30101   50101
 
      357     217     356     358     497   10157
        0   40101   10101   20101   30101   50101
 
      358     218     357     359     498   10158
        0   40101   10101   20101   30101   50101
 
      359     219     358     360     499   10159
        0   40101   10101   20101   30101   50101
 
      360     220     359     361     500   10160
        0   40101   10101   20101   30101   50101
 
      361     221     360     362     501   10161
        0   40101   10101   20101   30101   50101
 
      362     222     361     363     502   10162
        0   40101   10101   20101   30101   50101
 
      363     223     362     364     503   10163
        0   40101   10101   20101   30101   50101
 
      364     224     363     365     504   10164
        0   40101   10101   20101   30101   50101
 
      365     225     364     366     505   10165
        0   40101   10101   20101   30101   50101
 
      366     226     365     367     506   10166
        0   40101   10101   20101   30101   50101
 
      367     227     366     368     507   10167
        0   40101   10101   20101   30101   50101
 
      368     228     367     369     508   10168
        0   40101   10101   20101   30101   50101
 
      369     229     368     370     509   10169
        0   40101   10101   20101   30101   50101
 
      370     230     369     371     510   10170
        0   40101   10101   20101   30101   50101
 
      371     231     370     372     511   10171
        0   40101   10101   20101   30101   50101
 
      372     232     371     373     512   10172
        0   40101   10101   20101   30101   50101
 
      373     233     372     374     513   10173
        0   40101   10101   20101   30101   50101
 
      374     234     373     375     514   10174
        0   40101   10101   20101   30101   50101
 
      375     235     374     376     515   10175
        0   40101   10101   20101   30101   50101
 
      376     236     375     377     516   10176
        0   40101   10101   20101   30101   50101
 
      377     237     376     378     517   10177
        0   40101   10101   20101   30101   50101
 
      378     238     377     379     518   10178
        0   40101   10101   20101   30101   50101
 
      379     239     378     380     519   10179
        0   40101   10101   20101   30101   50101
 
      380     240     379     381     520   10180
        0   40101   10101   20101   30101   50101
 
      381     241     380     382     521   10181
        0   40101   10101   20101   30101   50101
 
      382     242     381     383     522   10182
        0   40101   10101   20101   30101   50101
 
      383     243     382     384     523   10183
        0   40101   10101   20101   30101   50101
 
      384     244     383     385     524   10184
        0   40101   10101   20101   30101   50101
 
      385     245     384     386     525   10185
        0   40101   10101   20101   30101   50101
 
      386     246     385     387     526   10186
        0   40101   10101   20101   30101   50101
 
      387     247     386     388     527   10187
        0   40101   10101   20101   30101   50101
 
      388     248     387     389     528   10188
        0   40101   10101   20101   30101   50101
 
      389     249     388     390     529   10189
        0   40101   10101   20101   30101   50101
 
      390     250     389     391     530   10190
        0   40101   10101   20101   30101   50101
 
      391     251     390     392     531   10191
        0   40101   10101   20101   30101   50101
 
      392     252     391     393     532   10192
        0   40101   10101   20101   30101   50101
 
      393     253     392     394     533   10193
        0   40101   10101   20101   30101   50101
 
      394     254     393     395     534   10194
        0   40101   10101   20101   30101   50101
 
      395     255     394     396     535   10195
        0   40101   10101   20101   30101   50101
 
      396     256     395     397     536   10196
        0   40101   10101   20101   30101   50101
 
      397     257     396     398     537   10197
        0   40101   10101   20101   30101   50101
 
      398     258     397     399     538   10198
        0   40101   10101   20101   30101   50101
 
      399     259     398     400     539   10199
        0   40101   10101   20101   30101   50101
 
      400     260     399     401     540   10200
        0   40101   10101   20101   30101   50101
 
      401     261     400     402     541   10201
        0   40101   10101   20101   30101   50101
 
      402     262     401     403     542   10202
        0   40101   10101   20101   30101   50101
 
      403     263     402     404     543   10203
        0   40101   10101   20101   30101   50101
 
      404     264     403     405     544   10204
        0   40101   10101   20101   30101   50101
 
      405     265     404   10205
        0   40101   10101   50101
 


 


 


 


 


 


 


 


 


 


 


 


 


 


 
      420     280     560   10220
        0   40101   30101   50101
 
      421     281     422     561   10221
        0   40101   20101   30101   50101
 
      422     282     421     423     562   10222
        0   40101   10101   20101   30101   50101
 
      423     283     422     424     563   10223
        0   40101   10101   20101   30101   50101
 
      424     423     564   10224
        0   10101   30101   50101
 


 


 


 


 


 


 


 


 


 


 


 


 


 


 


 


 


 


 


 
      444     445     584   10244
        0   20101   30101   50101
 
      445     305     444     446     585   10245
        0   40101   10101   20101   30101   50101
 
      446     306     445     447     586   10246
        0   40101   10101   20101   30101   50101
 
      447     307     446     448     587   10247
        0   40101   10101   20101   30101   50101
 
      448     308     447     449     588   10248
        0   40101   10101   20101   30101   50101
 
      449     309     448     450     589   10249
        0   40101   10101   20101   30101   50101
 
      450     310     449     451     590   10250
        0   40101   10101   20101   30101   50101
 
      451     311     450     452     591   10251
        0   40101   10101   20101   30101   50101
 
      452     312     451     453     592   10252
        0   40101   10101   20101   30101   50101
 
      453     313     452     454     593   10253
        0   40101   10101   20101   30101   50101
 
      454     314     453     455     594   10254
        0   40101   10101   20101   30101   50101
 
      455     315     454     456     595   10255
        0   40101   10101   20101   30101   50101
 
      456     316     455     457     596   10256
        0   40101   10101   20101   30101   50101
 
      457     317     456     458     597   10257
        0   40101   10101   20101   30101   50101
 
      458     318     457     459     598   10258
        0   40101   10101   20101   30101   50101
 
      459     319     458     460     599   10259
        0   40101   10101   20101   30101   50101
 
      460     320     459     461     600   10260
        0   40101   10101   20101   30101   50101
 
      461     321     460     462     601   10261
        0   40101   10101   20101   30101   50101
 
      462     322     461     463     602   10262
        0   40101   10101   20101   30101   50101
 
      463     323     462     464     603   10263
        0   40101   10101   20101   30101   50101
 
      464     324     463     465     604   10264
        0   40101   10101   20101   30101   50101
 
      465     325     464     466     605   10265
        0   40101   10101   20101   30101   50101
 
      466     326     465     467     606   10266
        0   40101   10101   20101   30101   50101
 
      467     327     466     468     607   10267
        0   40101   10101   20101   30101   50101
 
      468     328     467     469     608   10268
        0   40101   10101   20101   30101   50101
 
      469     329     468     470     609   10269
        0   40101   10101   20101   30101   50101
 
      470     330     469     471     610   10270
        0   40101   10101   20101   30101   50101
 
      471     331     470     472     611   10271
        0   40101   10101   20101   30101   50101
 
      472     332     471     473     612   10272
        0   40101   10101   20101   30101   50101
 
      473     333     472     474     613   10273
        0   40101   10101   20101   30101   50101
 
      474     334     473     475     614   10274
        0   40101   10101   20101   30101   50101
 
      475     335     474     476     615   10275
        0   40101   10101   20101   30101   50101
 
      476     336     475     477     616   10276
        0   40101   10101   20101   30101   50101
 
      477     337     476     478     617   10277
        0   40101   10101   20101   30101   50101
 
      478     338     477     479     618   10278
        0   40101   10101   20101   30101   50101
 
      479     339     478     480     619   10279
        0   40101   10101   20101   30101   50101
 
      480     340     479     481     620   10280
        0   40101   10101   20101   30101   50101
 
      481     341     480     482     621   10281
        0   40101   10101   20101   30101   50101
 
      482     342     481     483     622   10282
        0   40101   10101   20101   30101   50101
 
      483     343     482     484     623   10283
        0   40101   10101   20101   30101   50101
 
      484     344     483     485     624   10284
        0   40101   10101   20101   30101   50101
 
      485     345     484     486     625   10285
        0   40101   10101   20101   30101   50101
 
      486     346     485     487     626   10286
        0   40101   10101   20101   30101   50101
 
      487     347     486     488     627   10287
        0   40101   10101   20101   30101   50101
 
      488     348     487     489     628   10288
        0   40101   10101   20101   30101   50101
 
      489     349     488     490     629   10289
        0   40101   10101   20101   30101   50101
 
      490     350     489     491     630   10290
        0   40101   10101   20101   30101   50101
 
      491     351     490     492     631   10291
        0   40101   10101   20101   30101   50101
 
      492     352     491     493     632   10292
        0   40101   10101   20101   30101   50101
 
      493     353     492     494     633   10293
        0   40101   10101   20101   30101   50101
 
      494     354     493     495     634   10294
        0   40101   10101   20101   30101   50101
 
      495     355     494     496     635   10295
        0   40101   10101   20101   30101   50101
 
      496     356     495     497     636   10296
        0   40101   10101   20101   30101   50101
 
      497     357     496     498     637   10297
        0   40101   10101   20101   30101   50101
 
      498     358     497     499     638   10298
        0   40101   10101   20101   30101   50101
 
      499     359     498     500     639   10299
        0   40101   10101   20101   30101   50101
 
      500     360     499     501     640   10300
        0   40101   10101   20101   30101   50101
 
      501     361     500     502     641   10301
        0   40101   10101   20101   30101   50101
 
      502     362     501     503     642   10302
        0   40101   10101   20101   30101   50101
 
      503     363     502     504     643   10303
        0   40101   10101   20101   30101   50101
 
      504     364     503     505     644   10304
        0   40101   10101   20101   30101   50101
 
      505     365     504     506     645   10305
        0   40101   10101   20101   30101   50101
 
      506     366     505     507     646   10306
        0   40101   10101   20101   30101   50101
 
      507     367     506     508     647   10307
        0   40101   10101   20101   30101   50101
 
      508     368     507     509     648   10308
        0   40101   10101   20101   30101   50101
 
      509     369     508     510     649   10309
        0   40101   10101   20101   30101   50101
 
      510     370     509     511     650   10310
        0   40101   10101   20101   30101   50101
 
      511     371     510     512     651   10311
        0   40101   10101   20101   30101   50101
 
      512     372     511     513     652   10312
        0   40101   10101   20101   30101   50101
 
      513     373     512     514     653   10313
        0   40101   10101   20101   30101   50101
 
      514     374     513     515     654   10314
        0   40101   10101   20101   30101   50101
 
      515     375     514     516     655   10315
        0   40101   10101   20101   30101   50101
 
      516     376     515     517     656   10316
        0   40101   10101   20101   30101   50101
 
      517     377     516     518     657   10317
        0   40101   10101   20101   30101   50101
 
      518     378     517     519     658   10318
        0   40101   10101   20101   30101   50101
 
      519     379     518     520     659   10319
        0   40101   10101   20101   30101   50101
 
      520     380     519     521     660   10320
        0   40101   10101   20101   30101   50101
 
      521     381     520     522     661   10321
        0   40101   10101   20101   30101   50101
 
      522     382     521     523     662   10322
        0   40101   10101   20101   30101   50101
 
      523     383     522     524     663   10323
        0   40101   10101   20101   30101   50101
 
      524     384     523     525     664   10324
        0   40101   10101   20101   30101   50101
 
      525     385     524     526     665   10325
        0   40101   10101   20101   30101   50101
 
      526     386     525     527     666   10326
        0   40101   10101   20101   30101   50101
 
      527     387     526     528     667   10327
        0   40101   10101   20101   30101   50101
 
      528     388     527     529     668   10328
        0   40101   10101   20101   30101   50101
 
      529     389     528     530     669   10329
        0   40101   10101   20101   30101   50101
 
      530     390     529     531     670   10330
        0   40101   10101   20101   30101   50101
 
      531     391     530     532     671   10331
        0   40101   10101   20101   30101   50101
 
      532     392     531     533     672   10332
        0   40101   10101   20101   30101   50101
 
      533     393     532     534     673   10333
        0   40101   10101   20101   30101   50101
 
      534     394     533     535     674   10334
        0   40101   10101   20101   30101   50101
 
      535     395     534     536     675   10335
        0   40101   10101   20101   30101   50101
 
      536     396     535     537     676   10336
        0   40101   10101   20101   30101   50101
 
      537     397     536     538     677   10337
        0   40101   10101   20101   30101   50101
 
      538     398     537     539     678   10338
        0   40101   10101   20101   30101   50101
 
      539     399     538     540     679   10339
        0   40101   10101   20101   30101   50101
 
      540     400     539     541     680   10340
        0   40101   10101   20101   30101   50101
 
      541     401     540     542     681   10341
        0   40101   10101   20101   30101   50101
 
      542     402     541     543     682   10342
        0   40101   10101   20101   30101   50101
 
      543     403     542     544     683   10343
        0   40101   10101   20101   30101   50101
 
      544     404     543   10344
        0   40101   10101   50101
 


 


 


 


 


 


 


 


 


 


 


 


 


 


 
      559     560     699   10359
        0   20101   30101   50101
 
      560     420     559     700   10360
        0   40101   10101   30101   50101
 
      561     421     562     701   10361
        0   40101   20101   30101   50101
 
      562     422     561     563     702   10362
        0   40101   10101   20101   30101   50101
 
      563     423     562     564     703   10363
        0   40101   10101   20101   30101   50101
 
      564     424     563     565     704   10364
        0   40101   10101   20101   30101   50101
 
      565     564     566     705   10365
        0   10101   20101   30101   50101
 
      566     565     706   10366
        0   10101   30101   50101
 


 


 


 


 


 


 


 


 


 


 


 


 


 


 


 


 
      583     584     723   10383
        0   20101   30101   50101
 
      584     444     583     585     724   10384
        0   40101   10101   20101   30101   50101
 
      585     445     584     586     725   10385
        0   40101   10101   20101   30101   50101
 
      586     446     585     587     726   10386
        0   40101   10101   20101   30101   50101
 
      587     447     586     588     727   10387
        0   40101   10101   20101   30101   50101
 
      588     448     587     589     728   10388
        0   40101   10101   20101   30101   50101
 
      589     449     588     590     729   10389
        0   40101   10101   20101   30101   50101
 
      590     450     589     591     730   10390
        0   40101   10101   20101   30101   50101
 
      591     451     590     592     731   10391
        0   40101   10101   20101   30101   50101
 
      592     452     591     593     732   10392
        0   40101   10101   20101   30101   50101
 
      593     453     592     594     733   10393
        0   40101   10101   20101   30101   50101
 
      594     454     593     595     734   10394
        0   40101   10101   20101   30101   50101
 
      595     455     594     596     735   10395
        0   40101   10101   20101   30101   50101
 
      596     456     595     597     736   10396
        0   40101   10101   20101   30101   50101
 
      597     457     596     598     737   10397
        0   40101   10101   20101   30101   50101
 
      598     458     597     599     738   10398
        0   40101   10101   20101   30101   50101
 
      599     459     598     600     739   10399
        0   40101   10101   20101   30101   50101
 
      600     460     599     601     740   10400
        0   40101   10101   20101   30101   50101
 
      601     461     600     602     741   10401
        0   40101   10101   20101   30101   50101
 
      602     462     601     603     742   10402
        0   40101   10101   20101   30101   50101
 
      603     463     602     604     743   10403
        0   40101   10101   20101   30101   50101
 
      604     464     603     605     744   10404
        0   40101   10101   20101   30101   50101
 
      605     465     604     606     745   10405
        0   40101   10101   20101   30101   50101
 
      606     466     605     607     746   10406
        0   40101   10101   20101   30101   50101
 
      607     467     606     608     747   10407
        0   40101   10101   20101   30101   50101
 
      608     468     607     609     748   10408
        0   40101   10101   20101   30101   50101
 
      609     469     608     610     749   10409
        0   40101   10101   20101   30101   50101
 
      610     470     609     611     750   10410
        0   40101   10101   20101   30101   50101
 
      611     471     610     612     751   10411
        0   40101   10101   20101   30101   50101
 
      612     472     611     613     752   10412
        0   40101   10101   20101   30101   50101
 
      613     473     612     614     753   10413
        0   40101   10101   20101   30101   50101
 
      614     474     613     615     754   10414
        0   40101   10101   20101   30101   50101
 
      615     475     614     616     755   10415
        0   40101   10101   20101   30101   50101
 
      616     476     615     617     756   10416
        0   40101   10101   20101   30101   50101
 
      617     477     616     618     757   10417
        0   40101   10101   20101   30101   50101
 
      618     478     617     619     758   10418
        0   40101   10101   20101   30101   50101
 
      619     479     618     620     759   10419
        0   40101   10101   20101   30101   50101
 
      620     480     619     621     760   10420
        0   40101   10101   20101   30101   50101
 
      621     481     620     622     761   10421
        0   40101   10101   20101   30101   50101
 
      622     482     621     623     762   10422
        0   40101   10101   20101   30101   50101
 
      623     483     622     624     763   10423
        0   40101   10101   20101   30101   50101
 
      624     484     623     625     764   10424
        0   40101   10101   20101   30101   50101
 
      625     485     624     626     765   10425
        0   40101   10101   20101   30101   50101
 
      626     486     625     627     766   10426
        0   40101   10101   20101   30101   50101
 
      627     487     626     628     767   10427
        0   40101   10101   20101   30101   50101
 
      628     488     627     629     768   10428
        0   40101   10101   20101   30101   50101
 
      629     489     628     630     769   10429
        0   40101   10101   20101   30101   50101
 
      630     490     629     631     770   10430
        0   40101   10101   20101   30101   50101
 
      631     491     630     632     771   10431
        0   40101   10101   20101   30101   50101
 
      632     492     631     633     772   10432
        0   40101   10101   20101   30101   50101
 
      633     493     632     634     773   10433
        0   40101   10101   20101   30101   50101
 
      634     494     633     635     774   10434
        0   40101   10101   20101   30101   50101
 
      635     495     634     636     775   10435
        0   40101   10101   20101   30101   50101
 
      636     496     635     637     776   10436
        0   40101   10101   20101   30101   50101
 
      637     497     636     638     777   10437
        0   40101   10101   20101   30101   50101
 
      638     498     637     639     778   10438
        0   40101   10101   20101   30101   50101
 
      639     499     638     640     779   10439
        0   40101   10101   20101   30101   50101
 
      640     500     639     641     780   10440
        0   40101   10101   20101   30101   50101
 
      641     501     640     642     781   10441
        0   40101   10101   20101   30101   50101
 
      642     502     641     643     782   10442
        0   40101   10101   20101   30101   50101
 
      643     503     642     644     783   10443
        0   40101   10101   20101   30101   50101
 
      644     504     643     645     784   10444
        0   40101   10101   20101   30101   50101
 
      645     505     644     646     785   10445
        0   40101   10101   20101   30101   50101
 
      646     506     645     647     786   10446
        0   40101   10101   20101   30101   50101
 
      647     507     646     648     787   10447
        0   40101   10101   20101   30101   50101
 
      648     508     647     649     788   10448
        0   40101   10101   20101   30101   50101
 
      649     509     648     650     789   10449
        0   40101   10101   20101   30101   50101
 
      650     510     649     651     790   10450
        0   40101   10101   20101   30101   50101
 
      651     511     650     652     791   10451
        0   40101   10101   20101   30101   50101
 
      652     512     651     653     792   10452
        0   40101   10101   20101   30101   50101
 
      653     513     652     654     793   10453
        0   40101   10101   20101   30101   50101
 
      654     514     653     655     794   10454
        0   40101   10101   20101   30101   50101
 
      655     515     654     656     795   10455
        0   40101   10101   20101   30101   50101
 
      656     516     655     657     796   10456
        0   40101   10101   20101   30101   50101
 
      657     517     656     658     797   10457
        0   40101   10101   20101   30101   50101
 
      658     518     657     659     798   10458
        0   40101   10101   20101   30101   50101
 
      659     519     658     660     799   10459
        0   40101   10101   20101   30101   50101
 
      660     520     659     661     800   10460
        0   40101   10101   20101   30101   50101
 
      661     521     660     662     801   10461
        0   40101   10101   20101   30101   50101
 
      662     522     661     663     802   10462
        0   40101   10101   20101   30101   50101
 
      663     523     662     664     803   10463
        0   40101   10101   20101   30101   50101
 
      664     524     663     665     804   10464
        0   40101   10101   20101   30101   50101
 
      665     525     664     666     805   10465
        0   40101   10101   20101   30101   50101
 
      666     526     665     667     806   10466
        0   40101   10101   20101   30101   50101
 
      667     527     666     668     807   10467
        0   40101   10101   20101   30101   50101
 
      668     528     667     669     808   10468
        0   40101   10101   20101   30101   50101
 
      669     529     668     670     809   10469
        0   40101   10101   20101   30101   50101
 
      670     530     669     671     810   10470
        0   40101   10101   20101   30101   50101
 
      671     531     670     672     811   10471
        0   40101   10101   20101   30101   50101
 
      672     532     671     673     812   10472
        0   40101   10101   20101   30101   50101
 
      673     533     672     674     813   10473
        0   40101   10101   20101   30101   50101
 
      674     534     673     675     814   10474
        0   40101   10101   20101   30101   50101
 
      675     535     674     676     815   10475
        0   40101   10101   20101   30101   50101
 
      676     536     675     677     816   10476
        0   40101   10101   20101   30101   50101
 
      677     537     676     678     817   10477
        0   40101   10101   20101   30101   50101
 
      678     538     677     679     818   10478
        0   40101   10101   20101   30101   50101
 
      679     539     678     680     819   10479
        0   40101   10101   20101   30101   50101
 
      680     540     679     681     820   10480
        0   40101   10101   20101   30101   50101
 
      681     541     680     682     821   10481
        0   40101   10101   20101   30101   50101
 
      682     542     681     683     822   10482
        0   40101   10101   20101   30101   50101
 
      683     543     682     823   10483
        0   40101   10101   30101   50101
 


 


 


 


 


 


 


 


 


 


 


 


 


 


 


 
      699     559     700     839   10499
        0   40101   20101   30101   50101
 
      700     560     699     840   10500
        0   40101   10101   30101   50101
 
      701     561     702     841   10501
        0   40101   20101   30101   50101
 
      702     562     701     703     842   10502
        0   40101   10101   20101   30101   50101
 
      703     563     702     704     843   10503
        0   40101   10101   20101   30101   50101
 
      704     564     703     705     844   10504
        0   40101   10101   20101   30101   50101
 
      705     565     704     706     845   10505
        0   40101   10101   20101   30101   50101
 
      706     566     705     707     846   10506
        0   40101   10101   20101   30101   50101
 
      707     706     708     847   10507
        0   10101   20101   30101   50101
 
      708     707     709     848   10508
        0   10101   20101   30101   50101
 
      709     708     849   10509
        0   10101   30101   50101
 


 


 


 


 


 


 


 


 


 


 


 


 
      722     723     862   10522
        0   20101   30101   50101
 
      723     583     722     724     863   10523
        0   40101   10101   20101   30101   50101
 
      724     584     723     725     864   10524
        0   40101   10101   20101   30101   50101
 
      725     585     724     726     865   10525
        0   40101   10101   20101   30101   50101
 
      726     586     725     727     866   10526
        0   40101   10101   20101   30101   50101
 
      727     587     726     728     867   10527
        0   40101   10101   20101   30101   50101
 
      728     588     727     729     868   10528
        0   40101   10101   20101   30101   50101
 
      729     589     728     730     869   10529
        0   40101   10101   20101   30101   50101
 
      730     590     729     731     870   10530
        0   40101   10101   20101   30101   50101
 
      731     591     730     732     871   10531
        0   40101   10101   20101   30101   50101
 
      732     592     731     733     872   10532
        0   40101   10101   20101   30101   50101
 
      733     593     732     734     873   10533
        0   40101   10101   20101   30101   50101
 
      734     594     733     735     874   10534
        0   40101   10101   20101   30101   50101
 
      735     595     734     736     875   10535
        0   40101   10101   20101   30101   50101
 
      736     596     735     737     876   10536
        0   40101   10101   20101   30101   50101
 
      737     597     736     738     877   10537
        0   40101   10101   20101   30101   50101
 
      738     598     737     739     878   10538
        0   40101   10101   20101   30101   50101
 
      739     599     738     740     879   10539
        0   40101   10101   20101   30101   50101
 
      740     600     739     741     880   10540
        0   40101   10101   20101   30101   50101
 
      741     601     740     742     881   10541
        0   40101   10101   20101   30101   50101
 
      742     602     741     743     882   10542
        0   40101   10101   20101   30101   50101
 
      743     603     742     744     883   10543
        0   40101   10101   20101   30101   50101
 
      744     604     743     745     884   10544
        0   40101   10101   20101   30101   50101
 
      745     605     744     746     885   10545
        0   40101   10101   20101   30101   50101
 
      746     606     745     747     886   10546
        0   40101   10101   20101   30101   50101
 
      747     607     746     748     887   10547
        0   40101   10101   20101   30101   50101
 
      748     608     747     749     888   10548
        0   40101   10101   20101   30101   50101
 
      749     609     748     750     889   10549
        0   40101   10101   20101   30101   50101
 
      750     610     749     751     890   10550
        0   40101   10101   20101   30101   50101
 
      751     611     750     752     891   10551
        0   40101   10101   20101   30101   50101
 
      752     612     751     753     892   10552
        0   40101   10101   20101   30101   50101
 
      753     613     752     754     893   10553
        0   40101   10101   20101   30101   50101
 
      754     614     753     755     894   10554
        0   40101   10101   20101   30101   50101
 
      755     615     754     756     895   10555
        0   40101   10101   20101   30101   50101
 
      756     616     755     757     896   10556
        0   40101   10101   20101   30101   50101
 
      757     617     756     758     897   10557
        0   40101   10101   20101   30101   50101
 
      758     618     757     759     898   10558
        0   40101   10101   20101   30101   50101
 
      759     619     758     760     899   10559
        0   40101   10101   20101   30101   50101
 
      760     620     759     761     900   10560
        0   40101   10101   20101   30101   50101
 
      761     621     760     762     901   10561
        0   40101   10101   20101   30101   50101
 
      762     622     761     763     902   10562
        0   40101   10101   20101   30101   50101
 
      763     623     762     764     903   10563
        0   40101   10101   20101   30101   50101
 
      764     624     763     765     904   10564
        0   40101   10101   20101   30101   50101
 
      765     625     764     766     905   10565
        0   40101   10101   20101   30101   50101
 
      766     626     765     767     906   10566
        0   40101   10101   20101   30101   50101
 
      767     627     766     768     907   10567
        0   40101   10101   20101   30101   50101
 
      768     628     767     769     908   10568
        0   40101   10101   20101   30101   50101
 
      769     629     768     770     909   10569
        0   40101   10101   20101   30101   50101
 
      770     630     769     771     910   10570
        0   40101   10101   20101   30101   50101
 
      771     631     770     772     911   10571
        0   40101   10101   20101   30101   50101
 
      772     632     771     773     912   10572
        0   40101   10101   20101   30101   50101
 
      773     633     772     774     913   10573
        0   40101   10101   20101   30101   50101
 
      774     634     773     775     914   10574
        0   40101   10101   20101   30101   50101
 
      775     635     774     776     915   10575
        0   40101   10101   20101   30101   50101
 
      776     636     775     777     916   10576
        0   40101   10101   20101   30101   50101
 
      777     637     776     778     917   10577
        0   40101   10101   20101   30101   50101
 
      778     638     777     779     918   10578
        0   40101   10101   20101   30101   50101
 
      779     639     778     780     919   10579
        0   40101   10101   20101   30101   50101
 
      780     640     779     781     920   10580
        0   40101   10101   20101   30101   50101
 
      781     641     780     782     921   10581
        0   40101   10101   20101   30101   50101
 
      782     642     781     783     922   10582
        0   40101   10101   20101   30101   50101
 
      783     643     782     784     923   10583
        0   40101   10101   20101   30101   50101
 
      784     644     783     785     924   10584
        0   40101   10101   20101   30101   50101
 
      785     645     784     786     925   10585
        0   40101   10101   20101   30101   50101
 
      786     646     785     787     926   10586
        0   40101   10101   20101   30101   50101
 
      787     647     786     788     927   10587
        0   40101   10101   20101   30101   50101
 
      788     648     787     789     928   10588
        0   40101   10101   20101   30101   50101
 
      789     649     788     790     929   10589
        0   40101   10101   20101   30101   50101
 
      790     650     789     791     930   10590
        0   40101   10101   20101   30101   50101
 
      791     651     790     792     931   10591
        0   40101   10101   20101   30101   50101
 
      792     652     791     793     932   10592
        0   40101   10101   20101   30101   50101
 
      793     653     792     794     933   10593
        0   40101   10101   20101   30101   50101
 
      794     654     793     795     934   10594
        0   40101   10101   20101   30101   50101
 
      795     655     794     796     935   10595
        0   40101   10101   20101   30101   50101
 
      796     656     795     797     936   10596
        0   40101   10101   20101   30101   50101
 
      797     657     796     798     937   10597
        0   40101   10101   20101   30101   50101
 
      798     658     797     799     938   10598
        0   40101   10101   20101   30101   50101
 
      799     659     798     800     939   10599
        0   40101   10101   20101   30101   50101
 
      800     660     799     801     940   10600
        0   40101   10101   20101   30101   50101
 
      801     661     800     802     941   10601
        0   40101   10101   20101   30101   50101
 
      802     662     801     803     942   10602
        0   40101   10101   20101   30101   50101
 
      803     663     802     804     943   10603
        0   40101   10101   20101   30101   50101
 
      804     664     803     805     944   10604
        0   40101   10101   20101   30101   50101
 
      805     665     804     806     945   10605
        0   40101   10101   20101   30101   50101
 
      806     666     805     807     946   10606
        0   40101   10101   20101   30101   50101
 
      807     667     806     808     947   10607
        0   40101   10101   20101   30101   50101
 
      808     668     807     809     948   10608
        0   40101   10101   20101   30101   50101
 
      809     669     808     810     949   10609
        0   40101   10101   20101   30101   50101
 
      810     670     809     811     950   10610
        0   40101   10101   20101   30101   50101
 
      811     671     810     812     951   10611
        0   40101   10101   20101   30101   50101
 
      812     672     811     813     952   10612
        0   40101   10101   20101   30101   50101
 
      813     673     812     814     953   10613
        0   40101   10101   20101   30101   50101
 
      814     674     813     815     954   10614
        0   40101   10101   20101   30101   50101
 
      815     675     814     816     955   10615
        0   40101   10101   20101   30101   50101
 
      816     676     815     817     956   10616
        0   40101   10101   20101   30101   50101
 
      817     677     816     818     957   10617
        0   40101   10101   20101   30101   50101
 
      818     678     817     819     958   10618
        0   40101   10101   20101   30101   50101
 
      819     679     818     820     959   10619
        0   40101   10101   20101   30101   50101
 
      820     680     819     821     960   10620
        0   40101   10101   20101   30101   50101
 
      821     681     820     822     961   10621
        0   40101   10101   20101   30101   50101
 
      822     682     821     823     962   10622
        0   40101   10101   20101   30101   50101
 
      823     683     822     963   10623
        0   40101   10101   30101   50101
 


 


 


 


 


 


 


 


 


 


 


 


 


 
      837     838     977   10637
        0   20101   30101   50101
 
      838     837     839     978   10638
        0   10101   20101   30101   50101
 
      839     699     838     840     979   10639
        0   40101   10101   20101   30101   50101
 
      840     700     839     980   10640
        0   40101   10101   30101   50101
 
      841     701     842     981   10641
        0   40101   20101   30101   50101
 
      842     702     841     843     982   10642
        0   40101   10101   20101   30101   50101
 
      843     703     842     844     983   10643
        0   40101   10101   20101   30101   50101
 
      844     704     843     845     984   10644
        0   40101   10101   20101   30101   50101
 
      845     705     844     846     985   10645
        0   40101   10101   20101   30101   50101
 
      846     706     845     847     986   10646
        0   40101   10101   20101   30101   50101
 
      847     707     846     848     987   10647
        0   40101   10101   20101   30101   50101
 
      848     708     847     849     988   10648
        0   40101   10101   20101   30101   50101
 
      849     709     848     850     989   10649
        0   40101   10101   20101   30101   50101
 
      850     849     990   10650
        0   10101   30101   50101
 


 


 


 


 


 


 


 


 
      859     860     999   10659
        0   20101   30101   50101
 
      860     859     861    1000   10660
        0   10101   20101   30101   50101
 
      861     860     862    1001   10661
        0   10101   20101   30101   50101
 
      862     722     861     863    1002   10662
        0   40101   10101   20101   30101   50101
 
      863     723     862     864    1003   10663
        0   40101   10101   20101   30101   50101
 
      864     724     863     865    1004   10664
        0   40101   10101   20101   30101   50101
 
      865     725     864     866    1005   10665
        0   40101   10101   20101   30101   50101
 
      866     726     865     867    1006   10666
        0   40101   10101   20101   30101   50101
 
      867     727     866     868    1007   10667
        0   40101   10101   20101   30101   50101
 
      868     728     867     869    1008   10668
        0   40101   10101   20101   30101   50101
 
      869     729     868     870    1009   10669
        0   40101   10101   20101   30101   50101
 
      870     730     869     871    1010   10670
        0   40101   10101   20101   30101   50101
 
      871     731     870     872    1011   10671
        0   40101   10101   20101   30101   50101
 
      872     732     871     873    1012   10672
        0   40101   10101   20101   30101   50101
 
      873     733     872     874    1013   10673
        0   40101   10101   20101   30101   50101
 
      874     734     873     875    1014   10674
        0   40101   10101   20101   30101   50101
 
      875     735     874     876    1015   10675
        0   40101   10101   20101   30101   50101
 
      876     736     875     877    1016   10676
        0   40101   10101   20101   30101   50101
 
      877     737     876     878    1017   10677
        0   40101   10101   20101   30101   50101
 
      878     738     877     879    1018   10678
        0   40101   10101   20101   30101   50101
 
      879     739     878     880    1019   10679
        0   40101   10101   20101   30101   50101
 
      880     740     879     881    1020   10680
        0   40101   10101   20101   30101   50101
 
      881     741     880     882    1021   10681
        0   40101   10101   20101   30101   50101
 
      882     742     881     883    1022   10682
        0   40101   10101   20101   30101   50101
 
      883     743     882     884    1023   10683
        0   40101   10101   20101   30101   50101
 
      884     744     883     885    1024   10684
        0   40101   10101   20101   30101   50101
 
      885     745     884     886    1025   10685
        0   40101   10101   20101   30101   50101
 
      886     746     885     887    1026   10686
        0   40101   10101   20101   30101   50101
 
      887     747     886     888    1027   10687
        0   40101   10101   20101   30101   50101
 
      888     748     887     889    1028   10688
        0   40101   10101   20101   30101   50101
 
      889     749     888     890   10689
        0   40101   10101   20101   50101
 
      890     750     889     891   10690
        0   40101   10101   20101   50101
 
      891     751     890     892   10691
        0   40101   10101   20101   50101
 
      892     752     891     893   10692
        0   40101   10101   20101   50101
 
      893     753     892     894    1033   10693
        0   40101   10101   20101   30101   50101
 
      894     754     893     895    1034   10694
        0   40101   10101   20101   30101   50101
 
      895     755     894     896    1035   10695
        0   40101   10101   20101   30101   50101
 
      896     756     895     897    1036   10696
        0   40101   10101   20101   30101   50101
 
      897     757     896     898    1037   10697
        0   40101   10101   20101   30101   50101
 
      898     758     897     899    1038   10698
        0   40101   10101   20101   30101   50101
 
      899     759     898     900    1039   10699
        0   40101   10101   20101   30101   50101
 
      900     760     899     901    1040   10700
        0   40101   10101   20101   30101   50101
 
      901     761     900     902    1041   10701
        0   40101   10101   20101   30101   50101
 
      902     762     901     903    1042   10702
        0   40101   10101   20101   30101   50101
 
      903     763     902     904    1043   10703
        0   40101   10101   20101   30101   50101
 
      904     764     903     905    1044   10704
        0   40101   10101   20101   30101   50101
 
      905     765     904     906    1045   10705
        0   40101   10101   20101   30101   50101
 
      906     766     905     907    1046   10706
        0   40101   10101   20101   30101   50101
 
      907     767     906     908    1047   10707
        0   40101   10101   20101   30101   50101
 
      908     768     907     909    1048   10708
        0   40101   10101   20101   30101   50101
 
      909     769     908     910    1049   10709
        0   40101   10101   20101   30101   50101
 
      910     770     909     911    1050   10710
        0   40101   10101   20101   30101   50101
 
      911     771     910     912    1051   10711
        0   40101   10101   20101   30101   50101
 
      912     772     911     913    1052   10712
        0   40101   10101   20101   30101   50101
 
      913     773     912     914    1053   10713
        0   40101   10101   20101   30101   50101
 
      914     774     913     915    1054   10714
        0   40101   10101   20101   30101   50101
 
      915     775     914     916    1055   10715
        0   40101   10101   20101   30101   50101
 
      916     776     915     917    1056   10716
        0   40101   10101   20101   30101   50101
 
      917     777     916     918    1057   10717
        0   40101   10101   20101   30101   50101
 
      918     778     917     919    1058   10718
        0   40101   10101   20101   30101   50101
 
      919     779     918     920    1059   10719
        0   40101   10101   20101   30101   50101
 
      920     780     919     921    1060   10720
        0   40101   10101   20101   30101   50101
 
      921     781     920     922    1061   10721
        0   40101   10101   20101   30101   50101
 
      922     782     921     923    1062   10722
        0   40101   10101   20101   30101   50101
 
      923     783     922     924    1063   10723
        0   40101   10101   20101   30101   50101
 
      924     784     923     925    1064   10724
        0   40101   10101   20101   30101   50101
 
      925     785     924     926    1065   10725
        0   40101   10101   20101   30101   50101
 
      926     786     925     927    1066   10726
        0   40101   10101   20101   30101   50101
 
      927     787     926     928    1067   10727
        0   40101   10101   20101   30101   50101
 
      928     788     927     929    1068   10728
        0   40101   10101   20101   30101   50101
 
      929     789     928     930    1069   10729
        0   40101   10101   20101   30101   50101
 
      930     790     929     931    1070   10730
        0   40101   10101   20101   30101   50101
 
      931     791     930     932    1071   10731
        0   40101   10101   20101   30101   50101
 
      932     792     931     933    1072   10732
        0   40101   10101   20101   30101   50101
 
      933     793     932     934    1073   10733
        0   40101   10101   20101   30101   50101
 
      934     794     933     935    1074   10734
        0   40101   10101   20101   30101   50101
 
      935     795     934     936    1075   10735
        0   40101   10101   20101   30101   50101
 
      936     796     935     937    1076   10736
        0   40101   10101   20101   30101   50101
 
      937     797     936     938    1077   10737
        0   40101   10101   20101   30101   50101
 
      938     798     937     939    1078   10738
        0   40101   10101   20101   30101   50101
 
      939     799     938     940    1079   10739
        0   40101   10101   20101   30101   50101
 
      940     800     939     941    1080   10740
        0   40101   10101   20101   30101   50101
 
      941     801     940     942    1081   10741
        0   40101   10101   20101   30101   50101
 
      942     802     941     943    1082   10742
        0   40101   10101   20101   30101   50101
 
      943     803     942     944    1083   10743
        0   40101   10101   20101   30101   50101
 
      944     804     943     945    1084   10744
        0   40101   10101   20101   30101   50101
 
      945     805     944     946    1085   10745
        0   40101   10101   20101   30101   50101
 
      946     806     945     947    1086   10746
        0   40101   10101   20101   30101   50101
 
      947     807     946     948    1087   10747
        0   40101   10101   20101   30101   50101
 
      948     808     947     949    1088   10748
        0   40101   10101   20101   30101   50101
 
      949     809     948     950    1089   10749
        0   40101   10101   20101   30101   50101
 
      950     810     949     951    1090   10750
        0   40101   10101   20101   30101   50101
 
      951     811     950     952    1091   10751
        0   40101   10101   20101   30101   50101
 
      952     812     951     953    1092   10752
        0   40101   10101   20101   30101   50101
 
      953     813     952     954    1093   10753
        0   40101   10101   20101   30101   50101
 
      954     814     953     955    1094   10754
        0   40101   10101   20101   30101   50101
 
      955     815     954     956    1095   10755
        0   40101   10101   20101   30101   50101
 
      956     816     955     957    1096   10756
        0   40101   10101   20101   30101   50101
 
      957     817     956     958    1097   10757
        0   40101   10101   20101   30101   50101
 
      958     818     957     959    1098   10758
        0   40101   10101   20101   30101   50101
 
      959     819     958     960    1099   10759
        0   40101   10101   20101   30101   50101
 
      960     820     959     961    1100   10760
        0   40101   10101   20101   30101   50101
 
      961     821     960     962    1101   10761
        0   40101   10101   20101   30101   50101
 
      962     822     961     963    1102   10762
        0   40101   10101   20101   30101   50101
 
      963     823     962    1103   10763
        0   40101   10101   30101   50101
 


 


 


 


 


 
      969     970    1109   10769
        0   20101   30101   50101
 
      970     969     971    1110   10770
        0   10101   20101   30101   50101
 
      971     970     972    1111   10771
        0   10101   20101   30101   50101
 
      972     971     973    1112   10772
        0   10101   20101   30101   50101
 
      973     972     974    1113   10773
        0   10101   20101   30101   50101
 
      974     973     975    1114   10774
        0   10101   20101   30101   50101
 
      975     974     976    1115   10775
        0   10101   20101   30101   50101
 
      976     975     977    1116   10776
        0   10101   20101   30101   50101
 
      977     837     976     978    1117   10777
        0   40101   10101   20101   30101   50101
 
      978     838     977     979    1118   10778
        0   40101   10101   20101   30101   50101
 
      979     839     978     980    1119   10779
        0   40101   10101   20101   30101   50101
 
      980     840     979    1120   10780
        0   40101   10101   30101   50101
 
      981     841     982    1121   10781
        0   40101   20101   30101   50101
 
      982     842     981     983    1122   10782
        0   40101   10101   20101   30101   50101
 
      983     843     982     984    1123   10783
        0   40101   10101   20101   30101   50101
 
      984     844     983     985    1124   10784
        0   40101   10101   20101   30101   50101
 
      985     845     984     986    1125   10785
        0   40101   10101   20101   30101   50101
 
      986     846     985     987    1126   10786
        0   40101   10101   20101   30101   50101
 
      987     847     986     988    1127   10787
        0   40101   10101   20101   30101   50101
 
      988     848     987     989    1128   10788
        0   40101   10101   20101   30101   50101
 
      989     849     988     990    1129   10789
        0   40101   10101   20101   30101   50101
 
      990     850     989     991    1130   10790
        0   40101   10101   20101   30101   50101
 
      991     990     992    1131   10791
        0   10101   20101   30101   50101
 
      992     991     993    1132   10792
        0   10101   20101   30101   50101
 
      993     992    1133   10793
        0   10101   30101   50101
 


 


 
      996     997    1136   10796
        0   20101   30101   50101
 
      997     996     998    1137   10797
        0   10101   20101   30101   50101
 
      998     997     999    1138   10798
        0   10101   20101   30101   50101
 
      999     859     998    1000    1139   10799
        0   40101   10101   20101   30101   50101
 
     1000     860     999    1001    1140   10800
        0   40101   10101   20101   30101   50101
 
     1001     861    1000    1002    1141   10801
        0   40101   10101   20101   30101   50101
 
     1002     862    1001    1003    1142   10802
        0   40101   10101   20101   30101   50101
 
     1003     863    1002    1004    1143   10803
        0   40101   10101   20101   30101   50101
 
     1004     864    1003    1005    1144   10804
        0   40101   10101   20101   30101   50101
 
     1005     865    1004    1006    1145   10805
        0   40101   10101   20101   30101   50101
 
     1006     866    1005    1007    1146   10806
        0   40101   10101   20101   30101   50101
 
     1007     867    1006    1008    1147   10807
        0   40101   10101   20101   30101   50101
 
     1008     868    1007    1009    1148   10808
        0   40101   10101   20101   30101   50101
 
     1009     869    1008    1010    1149   10809
        0   40101   10101   20101   30101   50101
 
     1010     870    1009    1011    1150   10810
        0   40101   10101   20101   30101   50101
 
     1011     871    1010    1012    1151   10811
        0   40101   10101   20101   30101   50101
 
     1012     872    1011    1013    1152   10812
        0   40101   10101   20101   30101   50101
 
     1013     873    1012    1014    1153   10813
        0   40101   10101   20101   30101   50101
 
     1014     874    1013    1015    1154   10814
        0   40101   10101   20101   30101   50101
 
     1015     875    1014    1016    1155   10815
[...]
        0   60101   40101   10101   20101   30101
 
    38991   29191   38851   38990   38992   39131
        0   60101   40101   10101   20101   30101
 
    38992   29192   38852   38991   38993   39132
        0   60101   40101   10101   20101   30101
 
    38993   29193   38853   38992   38994   39133
        0   60101   40101   10101   20101   30101
 
    38994   29194   38854   38993   38995   39134
        0   60101   40101   10101   20101   30101
 
    38995   29195   38855   38994   38996   39135
        0   60101   40101   10101   20101   30101
 
    38996   29196   38856   38995   38997   39136
        0   60101   40101   10101   20101   30101
 
    38997   29197   38857   38996   38998   39137
        0   60101   40101   10101   20101   30101
 
    38998   29198   38858   38997   38999   39138
        0   60101   40101   10101   20101   30101
 
    38999   29199   38859   38998   39000   39139
        0   60101   40101   10101   20101   30101
 
    39000   29200   38860   38999   39001   39140
        0   60101   40101   10101   20101   30101
 
    39001   29201   38861   39000   39002   39141
        0   60101   40101   10101   20101   30101
 
    39002   29202   38862   39001   39003   39142
        0   60101   40101   10101   20101   30101
 
    39003   29203   38863   39002   39004   39143
        0   60101   40101   10101   20101   30101
 
    39004   29204   38864   39003   39005   39144
        0   60101   40101   10101   20101   30101
 
    39005   29205   38865   39004   39006   39145
        0   60101   40101   10101   20101   30101
 
    39006   29206   38866   39005   39007   39146
        0   60101   40101   10101   20101   30101
 
    39007   29207   38867   39006   39008   39147
        0   60101   40101   10101   20101   30101
 
    39008   29208   38868   39007   39009   39148
        0   60101   40101   10101   20101   30101
 
    39009   29209   38869   39008   39010   39149
        0   60101   40101   10101   20101   30101
 
    39010   29210   38870   39009   39011   39150
        0   60101   40101   10101   20101   30101
 
    39011   29211   38871   39010   39012   39151
        0   60101   40101   10101   20101   30101
 
    39012   29212   38872   39011   39013   39152
        0   60101   40101   10101   20101   30101
 
    39013   29213   38873   39012   39014   39153
        0   60101   40101   10101   20101   30101
 
    39014   29214   38874   39013   39015   39154
        0   60101   40101   10101   20101   30101
 
    39015   29215   38875   39014   39016   39155
        0   60101   40101   10101   20101   30101
 
    39016   29216   38876   39015   39017   39156
        0   60101   40101   10101   20101   30101
 
    39017   29217   38877   39016   39018   39157
        0   60101   40101   10101   20101   30101
 
    39018   29218   38878   39017   39019   39158
        0   60101   40101   10101   20101   30101
 
    39019   29219   38879   39018   39020   39159
        0   60101   40101   10101   20101   30101
 
    39020   29220   38880   39019   39021   39160
        0   60101   40101   10101   20101   30101
 
    39021   29221   38881   39020   39022   39161
        0   60101   40101   10101   20101   30101
 
    39022   29222   38882   39021   39023   39162
        0   60101   40101   10101   20101   30101
 
    39023   29223   38883   39022   39024   39163
        0   60101   40101   10101   20101   30101
 
    39024   29224   38884   39023   39025   39164
        0   60101   40101   10101   20101   30101
 
    39025   29225   38885   39024   39026   39165
        0   60101   40101   10101   20101   30101
 
    39026   29226   38886   39025   39027   39166
        0   60101   40101   10101   20101   30101
 
    39027   29227   38887   39026   39028   39167
        0   60101   40101   10101   20101   30101
 
    39028   29228   38888   39027   39029   39168
        0   60101   40101   10101   20101   30101
 
    39029   29229   38889   39028   39030   39169
        0   60101   40101   10101   20101   30101
 
    39030   29230   38890   39029   39031   39170
        0   60101   40101   10101   20101   30101
 
    39031   29231   38891   39030   39032   39171
        0   60101   40101   10101   20101   30101
 
    39032   29232   38892   39031   39033   39172
        0   60101   40101   10101   20101   30101
 
    39033   29233   38893   39032   39034   39173
        0   60101   40101   10101   20101   30101
 
    39034   29234   38894   39033   39035   39174
        0   60101   40101   10101   20101   30101
 
    39035   29235   38895   39034   39036   39175
        0   60101   40101   10101   20101   30101
 
    39036   29236   38896   39035   39037   39176
        0   60101   40101   10101   20101   30101
 
    39037   29237   38897   39036   39038   39177
        0   60101   40101   10101   20101   30101
 
    39038   29238   38898   39037   39039   39178
        0   60101   40101   10101   20101   30101
 
    39039   29239   38899   39038   39040   39179
        0   60101   40101   10101   20101   30101
 
    39040   29240   38900   39039   39041   39180
        0   60101   40101   10101   20101   30101
 
    39041   29241   38901   39040   39042   39181
        0   60101   40101   10101   20101   30101
 
    39042   29242   38902   39041   39043   39182
        0   60101   40101   10101   20101   30101
 
    39043   29243   38903   39042   39044   39183
        0   60101   40101   10101   20101   30101
 
    39044   29244   38904   39043   39045   39184
        0   60101   40101   10101   20101   30101
 
    39045   29245   38905   39044   39046   39185
        0   60101   40101   10101   20101   30101
 
    39046   29246   38906   39045   39047   39186
        0   60101   40101   10101   20101   30101
 
    39047   29247   38907   39046   39048   39187
        0   60101   40101   10101   20101   30101
 
    39048   29248   38908   39047   39049   39188
        0   60101   40101   10101   20101   30101
 
    39049   29249   38909   39048   39050   39189
        0   60101   40101   10101   20101   30101
 
    39050   29250   38910   39049   39051   39190
        0   60101   40101   10101   20101   30101
 
    39051   29251   38911   39050   39052   39191
        0   60101   40101   10101   20101   30101
 
    39052   29252   38912   39051   39053   39192
        0   60101   40101   10101   20101   30101
 
    39053   29253   38913   39052   39054   39193
        0   60101   40101   10101   20101   30101
 
    39054   29254   38914   39053   39055   39194
        0   60101   40101   10101   20101   30101
 
    39055   29255   38915   39054   39056   39195
        0   60101   40101   10101   20101   30101
 
    39056   29256   38916   39055   39057   39196
        0   60101   40101   10101   20101   30101
 
    39057   29257   38917   39056   39058   39197
        0   60101   40101   10101   20101   30101
 
    39058   29258   38918   39057   39059   39198
        0   60101   40101   10101   20101   30101
 
    39059   29259   38919   39058   39060   39199
        0   60101   40101   10101   20101   30101
 
    39060   29260   38920   39059   39200
        0   60101   40101   10101   30101
 
    39061   29261   38921   39062
        0   60101   40101   20101
 
    39062   29262   38922   39061   39063
        0   60101   40101   10101   20101
 
    39063   29263   38923   39062   39064
        0   60101   40101   10101   20101
 
    39064   29264   38924   39063   39065
        0   60101   40101   10101   20101
 
    39065   29265   38925   39064   39066
        0   60101   40101   10101   20101
 
    39066   29266   38926   39065   39067
        0   60101   40101   10101   20101
 
    39067   29267   38927   39066   39068
        0   60101   40101   10101   20101
 
    39068   29268   38928   39067   39069
        0   60101   40101   10101   20101
 
    39069   29269   38929   39068   39070
        0   60101   40101   10101   20101
 
    39070   29270   38930   39069   39071
        0   60101   40101   10101   20101
 
    39071   29271   38931   39070   39072
        0   60101   40101   10101   20101
 
    39072   29272   38932   39071   39073
        0   60101   40101   10101   20101
 
    39073   29273   38933   39072   39074
        0   60101   40101   10101   20101
 
    39074   29274   38934   39073   39075
        0   60101   40101   10101   20101
 
    39075   29275   38935   39074   39076
        0   60101   40101   10101   20101
 
    39076   29276   38936   39075   39077
        0   60101   40101   10101   20101
 
    39077   29277   38937   39076   39078
        0   60101   40101   10101   20101
 
    39078   29278   38938   39077   39079
        0   60101   40101   10101   20101
 
    39079   29279   38939   39078   39080
        0   60101   40101   10101   20101
 
    39080   29280   38940   39079   39081
        0   60101   40101   10101   20101
 
    39081   29281   38941   39080   39082
        0   60101   40101   10101   20101
 
    39082   29282   38942   39081   39083
        0   60101   40101   10101   20101
 
    39083   29283   38943   39082   39084
        0   60101   40101   10101   20101
 
    39084   29284   38944   39083   39085
        0   60101   40101   10101   20101
 
    39085   29285   38945   39084   39086
        0   60101   40101   10101   20101
 
    39086   29286   38946   39085   39087
        0   60101   40101   10101   20101
 
    39087   29287   38947   39086   39088
        0   60101   40101   10101   20101
 
    39088   29288   38948   39087   39089
        0   60101   40101   10101   20101
 
    39089   29289   38949   39088   39090
        0   60101   40101   10101   20101
 
    39090   29290   38950   39089   39091
        0   60101   40101   10101   20101
 
    39091   29291   38951   39090   39092
        0   60101   40101   10101   20101
 
    39092   29292   38952   39091   39093
        0   60101   40101   10101   20101
 
    39093   29293   38953   39092   39094
        0   60101   40101   10101   20101
 
    39094   29294   38954   39093   39095
        0   60101   40101   10101   20101
 
    39095   29295   38955   39094   39096
        0   60101   40101   10101   20101
 
    39096   29296   38956   39095   39097
        0   60101   40101   10101   20101
 
    39097   29297   38957   39096   39098
        0   60101   40101   10101   20101
 
    39098   29298   38958   39097   39099
        0   60101   40101   10101   20101
 
    39099   29299   38959   39098   39100
        0   60101   40101   10101   20101
 
    39100   29300   38960   39099   39101
        0   60101   40101   10101   20101
 
    39101   29301   38961   39100   39102
        0   60101   40101   10101   20101
 
    39102   29302   38962   39101   39103
        0   60101   40101   10101   20101
 
    39103   29303   38963   39102   39104
        0   60101   40101   10101   20101
 
    39104   29304   38964   39103   39105
        0   60101   40101   10101   20101
 
    39105   29305   38965   39104   39106
        0   60101   40101   10101   20101
 
    39106   29306   38966   39105   39107
        0   60101   40101   10101   20101
 
    39107   29307   38967   39106   39108
        0   60101   40101   10101   20101
 
    39108   29308   38968   39107   39109
        0   60101   40101   10101   20101
 
    39109   29309   38969   39108   39110
        0   60101   40101   10101   20101
 
    39110   29310   38970   39109   39111
        0   60101   40101   10101   20101
 
    39111   29311   38971   39110   39112
        0   60101   40101   10101   20101
 
    39112   29312   38972   39111   39113
        0   60101   40101   10101   20101
 
    39113   29313   38973   39112   39114
        0   60101   40101   10101   20101
 
    39114   29314   38974   39113   39115
        0   60101   40101   10101   20101
 
    39115   29315   38975   39114   39116
        0   60101   40101   10101   20101
 
    39116   29316   38976   39115   39117
        0   60101   40101   10101   20101
 
    39117   29317   38977   39116   39118
        0   60101   40101   10101   20101
 
    39118   29318   38978   39117   39119
        0   60101   40101   10101   20101
 
    39119   29319   38979   39118   39120
        0   60101   40101   10101   20101
 
    39120   29320   38980   39119   39121
        0   60101   40101   10101   20101
 
    39121   29321   38981   39120   39122
        0   60101   40101   10101   20101
 
    39122   29322   38982   39121   39123
        0   60101   40101   10101   20101
 
    39123   29323   38983   39122   39124
        0   60101   40101   10101   20101
 
    39124   29324   38984   39123   39125
        0   60101   40101   10101   20101
 
    39125   29325   38985   39124   39126
        0   60101   40101   10101   20101
 
    39126   29326   38986   39125   39127
        0   60101   40101   10101   20101
 
    39127   29327   38987   39126   39128
        0   60101   40101   10101   20101
 
    39128   29328   38988   39127   39129
        0   60101   40101   10101   20101
 
    39129   29329   38989   39128   39130
        0   60101   40101   10101   20101
 
    39130   29330   38990   39129   39131
        0   60101   40101   10101   20101
 
    39131   29331   38991   39130   39132
        0   60101   40101   10101   20101
 
    39132   29332   38992   39131   39133
        0   60101   40101   10101   20101
 
    39133   29333   38993   39132   39134
        0   60101   40101   10101   20101
 
    39134   29334   38994   39133   39135
        0   60101   40101   10101   20101
 
    39135   29335   38995   39134   39136
        0   60101   40101   10101   20101
 
    39136   29336   38996   39135   39137
        0   60101   40101   10101   20101
 
    39137   29337   38997   39136   39138
        0   60101   40101   10101   20101
 
    39138   29338   38998   39137   39139
        0   60101   40101   10101   20101
 
    39139   29339   38999   39138   39140
        0   60101   40101   10101   20101
 
    39140   29340   39000   39139   39141
        0   60101   40101   10101   20101
 
    39141   29341   39001   39140   39142
        0   60101   40101   10101   20101
 
    39142   29342   39002   39141   39143
        0   60101   40101   10101   20101
 
    39143   29343   39003   39142   39144
        0   60101   40101   10101   20101
 
    39144   29344   39004   39143   39145
        0   60101   40101   10101   20101
 
    39145   29345   39005   39144   39146
        0   60101   40101   10101   20101
 
    39146   29346   39006   39145   39147
        0   60101   40101   10101   20101
 
    39147   29347   39007   39146   39148
        0   60101   40101   10101   20101
 
    39148   29348   39008   39147   39149
        0   60101   40101   10101   20101
 
    39149   29349   39009   39148   39150
        0   60101   40101   10101   20101
 
    39150   29350   39010   39149   39151
        0   60101   40101   10101   20101
 
    39151   29351   39011   39150   39152
        0   60101   40101   10101   20101
 
    39152   29352   39012   39151   39153
        0   60101   40101   10101   20101
 
    39153   29353   39013   39152   39154
        0   60101   40101   10101   20101
 
    39154   29354   39014   39153   39155
        0   60101   40101   10101   20101
 
    39155   29355   39015   39154   39156
        0   60101   40101   10101   20101
 
    39156   29356   39016   39155   39157
        0   60101   40101   10101   20101
 
    39157   29357   39017   39156   39158
        0   60101   40101   10101   20101
 
    39158   29358   39018   39157   39159
        0   60101   40101   10101   20101
 
    39159   29359   39019   39158   39160
        0   60101   40101   10101   20101
 
    39160   29360   39020   39159   39161
        0   60101   40101   10101   20101
 
    39161   29361   39021   39160   39162
        0   60101   40101   10101   20101
 
    39162   29362   39022   39161   39163
        0   60101   40101   10101   20101
 
    39163   29363   39023   39162   39164
        0   60101   40101   10101   20101
 
    39164   29364   39024   39163   39165
        0   60101   40101   10101   20101
 
    39165   29365   39025   39164   39166
        0   60101   40101   10101   20101
 
    39166   29366   39026   39165   39167
        0   60101   40101   10101   20101
 
    39167   29367   39027   39166   39168
        0   60101   40101   10101   20101
 
    39168   29368   39028   39167   39169
        0   60101   40101   10101   20101
 
    39169   29369   39029   39168   39170
        0   60101   40101   10101   20101
 
    39170   29370   39030   39169   39171
        0   60101   40101   10101   20101
 
    39171   29371   39031   39170   39172
        0   60101   40101   10101   20101
 
    39172   29372   39032   39171   39173
        0   60101   40101   10101   20101
 
    39173   29373   39033   39172   39174
        0   60101   40101   10101   20101
 
    39174   29374   39034   39173   39175
        0   60101   40101   10101   20101
 
    39175   29375   39035   39174   39176
        0   60101   40101   10101   20101
 
    39176   29376   39036   39175   39177
        0   60101   40101   10101   20101
 
    39177   29377   39037   39176   39178
        0   60101   40101   10101   20101
 
    39178   29378   39038   39177   39179
        0   60101   40101   10101   20101
 
    39179   29379   39039   39178   39180
        0   60101   40101   10101   20101
 
    39180   29380   39040   39179   39181
        0   60101   40101   10101   20101
 
    39181   29381   39041   39180   39182
        0   60101   40101   10101   20101
 
    39182   29382   39042   39181   39183
        0   60101   40101   10101   20101
 
    39183   29383   39043   39182   39184
        0   60101   40101   10101   20101
 
    39184   29384   39044   39183   39185
        0   60101   40101   10101   20101
 
    39185   29385   39045   39184   39186
        0   60101   40101   10101   20101
 
    39186   29386   39046   39185   39187
        0   60101   40101   10101   20101
 
    39187   29387   39047   39186   39188
        0   60101   40101   10101   20101
 
    39188   29388   39048   39187   39189
        0   60101   40101   10101   20101
 
    39189   29389   39049   39188   39190
        0   60101   40101   10101   20101
 
    39190   29390   39050   39189   39191
        0   60101   40101   10101   20101
 
    39191   29391   39051   39190   39192
        0   60101   40101   10101   20101
 
    39192   29392   39052   39191   39193
        0   60101   40101   10101   20101
 
    39193   29393   39053   39192   39194
        0   60101   40101   10101   20101
 
    39194   29394   39054   39193   39195
        0   60101   40101   10101   20101
 
    39195   29395   39055   39194   39196
        0   60101   40101   10101   20101
 
    39196   29396   39056   39195   39197
        0   60101   40101   10101   20101
 
    39197   29397   39057   39196   39198
        0   60101   40101   10101   20101
 
    39198   29398   39058   39197   39199
        0   60101   40101   10101   20101
 
    39199   29399   39059   39198   39200
        0   60101   40101   10101   20101
 
    39200   29400   39060   39199
        0   60101   40101   10101
 
Allocate budget reader component.
Open budget file in budget reader.
Allocate head reader component.
Open head file in head reader component.
Allocate MODPATH basic data component.
Read MODPATH basic data component.
Read the remainder of the MODPATH simulation data component.
Allocate particle tracking engine component.
Compute range of time steps. Prepare for time step loop                                                                             
Begin TIME_STEP_LOOP
Compute TSMAX                                                                                                                       
Begin TRACKING_INTERVAL_LOOP
Exit TRACKING_INTERVAL_LOOP
Exit TIME_STEP_LOOP
Write endpoint file.
Consolidating pathline segments.
Begin memory deallocation.
Memory deallocation complete.
