                                   MODFLOW 6
                U.S. GEOLOGICAL SURVEY MODULAR HYDROLOGIC MODEL
                             TRANSPORT MODEL (GWE)
                            VERSION 6.6.1 02/10/2025

   MODFLOW 6 compiled Feb 14 2025 13:40:10 with Intel(R) Fortran Intel(R) 64
   Compiler Classic for applications running on Intel(R) 64, Version 2021.7.0
                             Build 20220726_000000

This software has been approved for release by the U.S. Geological 
Survey (USGS). Although the software has been subjected to rigorous 
review, the USGS reserves the right to update the software as needed 
pursuant to further analysis and review. No warranty, expressed or 
implied, is made by the USGS or the U.S. Government as to the 
functionality of the software and related material nor shall the 
fact of release constitute any such warranty. Furthermore, the 
software is released on condition that neither the USGS nor the U.S. 
Government shall be held liable for any damages resulting from its 
authorized or unauthorized use. Also refer to the USGS Water 
Resources Software User Rights Notice for complete use, copyright, 
and distribution information.


As a work of the United States Government, this USGS product is 
in the public domain within the United States. You can copy, 
modify, distribute, and perform the work, even for commercial 
purposes, all without asking permission. Additionally, USGS 
waives copyright and related rights in the work worldwide 
through CC0 1.0 Universal Public Domain Dedication 
(https://creativecommons.org/publicdomain/zero/1.0/).

The following GNU Lesser General Public License (LGPL) libraries
are used in this USGS product:

    SPARSKIT version 2.0
      ilut, luson, and qsplit 
      (https://www-users.cse.umn.edu/~saad/software/SPARSKIT/)

    RCM - Reverse Cuthill McKee Ordering
      (https://people.math.sc.edu/Burkardt/f_src/rcm/rcm.html)

    BLAS - Basic Linear Algebra Subprograms Level 1
      (https://people.math.sc.edu/Burkardt/f_src/blas1_d/blas1_d.html)

    SPARSEKIT - Sparse Matrix Utility Package
      amux, dperm, dvperm, rperm, and cperm
      (https://people.sc.fsu.edu/~jburkardt/f77_src/sparsekit/sparsekit.html)

The following BSD-3 License libraries are used in this USGS product:

    Modern Fortran DAG Library
      Copyright (c) 2018, Jacob Williams
      All rights reserved.
      (https://github.com/jacobwilliams/daglib)

MODFLOW 6 compiler options: /O2 /heap-arrays:0 /fpe:0 /traceback /nologo /fpp
/c /module:win64\mod_mf6\ /object:win64\obj_mf6\

System command used to initiate simulation:
\\home\schorppl$\exe\mf6.exe

MODFLOW was compiled using uniform precision.

Real Variables
  KIND: 8
  TINY (smallest non-zero value):    2.225074-308
  HUGE (largest value):    1.797693+308
  PRECISION: 15
  SIZE IN BITS: 64

Integer Variables
  KIND: 4
  HUGE (largest value): 2147483647
  SIZE IN BITS: 32

Long Integer Variables
  KIND: 8
  HUGE (largest value): 9223372036854775807
  SIZE IN BITS: 64

Logical Variables
  KIND: 4
  SIZE IN BITS: 32
 
 NAMEFILE OPTIONS:
 END NAMEFILE OPTIONS:

 DIS -- STRUCTURED GRID DISCRETIZATION PACKAGE, VERSION 2 : 3/27/2014 - INPUT READ FROM MEMPATH: __INPUT__/GWE-SIM_TEST/DIS                        


 CND-- THERMAL CONDUCTION AND DISPERSION PACKAGE, VERSION 1, 01/01/2024, INPUT READ FROM MEMPATH __INPUT__/GWE-SIM_TEST/CND                        


 Setting Discretization Options
 End Setting Discretization Options

 Setting Discretization Dimensions
    NLAY = 6
    NROW = 50
    NCOL = 100
 End Setting Discretization Dimensions

 Setting Discretization Griddata
    DELR set from input file
    DELC set from input file
    TOP set from input file
    BOTM set from input file
    IDOMAIN set from input file
 End Setting Discretization Griddata


 The specified IDOMAIN results in a reduced number of cells.
 Number of user nodes: 30000
 Number of nodes in solution: 29581



 FMI -- FLOW MODEL INTERFACE, VERSION 2, 8/17/2023 INPUT READ FROM UNIT 1006


 # File generated by Flopy version 3.9.2 on 03/06/2025 at 15:30:02.
 PROCESSING FMI OPTIONS
 END OF FMI OPTIONS
 PROCESSING FMI PACKAGEDATA

 OPENED ../test.hds
 FILE TYPE:DATA(BINARY)   UNIT 1015   STATUS:UNKNOWN             
 FORMAT:UNFORMATTED            ACCESS:STREAM              
 ACTION:READWRITE           

Reading binary file to determine number of records per time step.
Detected 6 unique records in binary file.

 OPENED ../test.cbc
 FILE TYPE:DATA(BINARY)   UNIT 1016   STATUS:UNKNOWN             
 FORMAT:UNFORMATTED            ACCESS:STREAM              
 ACTION:READWRITE           

Reading budget file to determine number of terms per time step.
    1.00000        FLOW-JA-FACE                 
    1.00000          DATA-SPDIS NPF             
    1.00000            DATA-SAT NPF             
    1.00000                 CHD CHD-1           
    1.00000                 CHD CHD-2           
Detected 5 unique flow terms in budget file.
 END OF FMI PACKAGEDATA

 ADV-- ADVECTION PACKAGE, VERSION 1, 8/25/2017 INPUT READ FROM UNIT 1008


 # File generated by Flopy version 3.9.2 on 03/06/2025 at 15:30:02.
 PROCESSING ADVECTION OPTIONS
    ADVECTION WEIGHTING SCHEME HAS BEEN SET TO: TVD
 END OF ADVECTION OPTIONS
 Setting CND Options
    XT3D formulation [0=INACTIVE, 1=ACTIVE, 3=ACTIVE RHS] set to: 1
 End Setting CND Options

 Setting CND Griddata
    ALH set from input file
    ATH1 set from input file
    KTW set from input file
    KTS set from input file
 End Setting CND Griddata


 CTP   -- CTP PACKAGE, VERSION 8, 2/22/2014 INPUT READ FROM MEMPATH: __INPUT__/GWE-SIM_TEST/CTP-1                      

 PROCESSING CTP BASE OPTIONS
 END OF CTP BASE OPTIONS

 PROCESSING CTP BASE DIMENSIONS
    MAXBOUND =       1
 END OF CTP BASE DIMENSIONS
    STRT set from input file

 EST -- ENERGY STORAGE AND TRANSFER PACKAGE, VERSION 1, 7/29/2020 INPUT READ FROM UNIT 1007


 # File generated by Flopy version 3.9.2 on 03/06/2025 at 15:30:02.
 PROCESSING ENERGY STORAGE AND TRANSFER OPTIONS
    Density of the water has been set to:     1000.00    
    Heat capacity of the water has been set to:     4186.00    
    Latent heat of vaporization of the water has been set to:    2.260000E+06
 END OF ENERGY STORAGE AND TRANSFER OPTIONS
 PROCESSING GRIDDATA

   MOBILE DOMAIN POROSITY =  0.2000000    

  HEAT CAPACITY OF SOLIDS =   840.0000    

        DENSITY OF SOLIDS =   2650.000    
 END PROCESSING GRIDDATA

 SSM -- SOURCE-SINK MIXING PACKAGE, VERSION 1, 8/25/2017 INPUT READ FROM UNIT 1010


 # File generated by Flopy version 3.9.2 on 03/06/2025 at 15:30:02.
 PROCESSING SSM OPTIONS
 END OF SSM OPTIONS
 PROCESSING SOURCES
 AUX SOURCE DETECTED.
    USING AUX COLUMN 1 IN PACKAGE CHD-1
 AUX SOURCE DETECTED.
    USING AUX COLUMN 1 IN PACKAGE CHD-2
 END PROCESSING SOURCES
 OPTIONAL FILEINPUT BLOCK NOT FOUND.  CONTINUING.
      THE LAST TIME STEP WILL BE PRINTED
      THE LAST TIME STEP WILL BE PRINTED
 # File generated by Flopy version 3.9.2 on 03/06/2025 at 15:30:02.

 PROCESSING OC OPTIONS

    BUDGET INFORMATION WILL BE WRITTEN TO:
      UNIT NUMBER: 1017
      FILE NAME: gwe-sim_test.cbc

 OPENED gwe-sim_test.cbc
 FILE TYPE:DATA(BINARY)   UNIT 1017   STATUS:REPLACE             
 FORMAT:UNFORMATTED            ACCESS:STREAM              
 ACTION:READWRITE           

    TEMPERATURE INFORMATION WILL BE WRITTEN TO:
      UNIT NUMBER: 1018
      FILE NAME: gwe-sim_test.ucn

 OPENED gwe-sim_test.ucn
 FILE TYPE:DATA(BINARY)   UNIT 1018   STATUS:REPLACE             
 FORMAT:UNFORMATTED            ACCESS:STREAM              
 ACTION:READWRITE           

 END OF OC OPTIONS

start timestep kper="1" kstp="1" mode="normal"


 BEGIN READING OUTPUT CONTROL FOR STRESS PERIOD 1
      ALL TIME STEPS WILL BE SAVED
      THE LAST TIME STEP WILL BE SAVED
      THE LAST TIME STEP WILL BE PRINTED

 END READING OUTPUT CONTROL FOR STRESS PERIOD 1

 FMI READING BUDGET TERMS FOR KSTP 1 KPER 1
    1.00000        FLOW-JA-FACE                 
    1.00000          DATA-SPDIS NPF             
    1.00000            DATA-SAT NPF             
    1.00000                 CHD CHD-1           
    1.00000                 CHD CHD-2           

 FMI READING HEAD FOR KSTP 1 KPER 1

 XT3D is active.



 TEMPERATURE WILL BE SAVED ON UNIT 1018 AT END OF TIME STEP    1, STRESS PERIOD    1

end timestep


start timestep kper="1" kstp="2" mode="normal"


 FMI SETTING BUDGET TERMS FOR KSTP 2 AND KPER 1 TO BUDGET FILE TERMS FROM KSTP 1 AND KPER 1

 FMI SETTING HEAD FOR KSTP 2 AND KPER 1 TO BINARY FILE HEADS FROM KSTP 1 AND KPER 1

 TEMPERATURE WILL BE SAVED ON UNIT 1018 AT END OF TIME STEP    2, STRESS PERIOD    1

end timestep


start timestep kper="1" kstp="3" mode="normal"


 FMI SETTING BUDGET TERMS FOR KSTP 3 AND KPER 1 TO BUDGET FILE TERMS FROM KSTP 1 AND KPER 1

 FMI SETTING HEAD FOR KSTP 3 AND KPER 1 TO BINARY FILE HEADS FROM KSTP 1 AND KPER 1

 TEMPERATURE WILL BE SAVED ON UNIT 1018 AT END OF TIME STEP    3, STRESS PERIOD    1

end timestep


start timestep kper="1" kstp="4" mode="normal"


 FMI SETTING BUDGET TERMS FOR KSTP 4 AND KPER 1 TO BUDGET FILE TERMS FROM KSTP 1 AND KPER 1

 FMI SETTING HEAD FOR KSTP 4 AND KPER 1 TO BINARY FILE HEADS FROM KSTP 1 AND KPER 1

 TEMPERATURE WILL BE SAVED ON UNIT 1018 AT END OF TIME STEP    4, STRESS PERIOD    1

end timestep


start timestep kper="1" kstp="5" mode="normal"


 FMI SETTING BUDGET TERMS FOR KSTP 5 AND KPER 1 TO BUDGET FILE TERMS FROM KSTP 1 AND KPER 1

 FMI SETTING HEAD FOR KSTP 5 AND KPER 1 TO BINARY FILE HEADS FROM KSTP 1 AND KPER 1

 TEMPERATURE WILL BE SAVED ON UNIT 1018 AT END OF TIME STEP    5, STRESS PERIOD    1

end timestep


start timestep kper="1" kstp="6" mode="normal"


 FMI SETTING BUDGET TERMS FOR KSTP 6 AND KPER 1 TO BUDGET FILE TERMS FROM KSTP 1 AND KPER 1

 FMI SETTING HEAD FOR KSTP 6 AND KPER 1 TO BINARY FILE HEADS FROM KSTP 1 AND KPER 1

 TEMPERATURE WILL BE SAVED ON UNIT 1018 AT END OF TIME STEP    6, STRESS PERIOD    1

end timestep


start timestep kper="1" kstp="7" mode="normal"


 FMI SETTING BUDGET TERMS FOR KSTP 7 AND KPER 1 TO BUDGET FILE TERMS FROM KSTP 1 AND KPER 1

 FMI SETTING HEAD FOR KSTP 7 AND KPER 1 TO BINARY FILE HEADS FROM KSTP 1 AND KPER 1

 TEMPERATURE WILL BE SAVED ON UNIT 1018 AT END OF TIME STEP    7, STRESS PERIOD    1

end timestep


start timestep kper="1" kstp="8" mode="normal"


 FMI SETTING BUDGET TERMS FOR KSTP 8 AND KPER 1 TO BUDGET FILE TERMS FROM KSTP 1 AND KPER 1

 FMI SETTING HEAD FOR KSTP 8 AND KPER 1 TO BINARY FILE HEADS FROM KSTP 1 AND KPER 1

 TEMPERATURE WILL BE SAVED ON UNIT 1018 AT END OF TIME STEP    8, STRESS PERIOD    1

end timestep


start timestep kper="1" kstp="9" mode="normal"


 FMI SETTING BUDGET TERMS FOR KSTP 9 AND KPER 1 TO BUDGET FILE TERMS FROM KSTP 1 AND KPER 1

 FMI SETTING HEAD FOR KSTP 9 AND KPER 1 TO BINARY FILE HEADS FROM KSTP 1 AND KPER 1

 TEMPERATURE WILL BE SAVED ON UNIT 1018 AT END OF TIME STEP    9, STRESS PERIOD    1

end timestep


start timestep kper="1" kstp="10" mode="normal"


 FMI SETTING BUDGET TERMS FOR KSTP 10 AND KPER 1 TO BUDGET FILE TERMS FROM KSTP 1 AND KPER 1

 FMI SETTING HEAD FOR KSTP 10 AND KPER 1 TO BINARY FILE HEADS FROM KSTP 1 AND KPER 1

 TEMPERATURE WILL BE SAVED ON UNIT 1018 AT END OF TIME STEP   10, STRESS PERIOD    1

end timestep


start timestep kper="1" kstp="11" mode="normal"


 FMI SETTING BUDGET TERMS FOR KSTP 11 AND KPER 1 TO BUDGET FILE TERMS FROM KSTP 1 AND KPER 1

 FMI SETTING HEAD FOR KSTP 11 AND KPER 1 TO BINARY FILE HEADS FROM KSTP 1 AND KPER 1

 TEMPERATURE WILL BE SAVED ON UNIT 1018 AT END OF TIME STEP   11, STRESS PERIOD    1

end timestep


start timestep kper="1" kstp="12" mode="normal"


 FMI SETTING BUDGET TERMS FOR KSTP 12 AND KPER 1 TO BUDGET FILE TERMS FROM KSTP 1 AND KPER 1

 FMI SETTING HEAD FOR KSTP 12 AND KPER 1 TO BINARY FILE HEADS FROM KSTP 1 AND KPER 1

 TEMPERATURE WILL BE SAVED ON UNIT 1018 AT END OF TIME STEP   12, STRESS PERIOD    1

end timestep


start timestep kper="1" kstp="13" mode="normal"


 FMI SETTING BUDGET TERMS FOR KSTP 13 AND KPER 1 TO BUDGET FILE TERMS FROM KSTP 1 AND KPER 1

 FMI SETTING HEAD FOR KSTP 13 AND KPER 1 TO BINARY FILE HEADS FROM KSTP 1 AND KPER 1

 TEMPERATURE WILL BE SAVED ON UNIT 1018 AT END OF TIME STEP   13, STRESS PERIOD    1

end timestep


start timestep kper="1" kstp="14" mode="normal"


 FMI SETTING BUDGET TERMS FOR KSTP 14 AND KPER 1 TO BUDGET FILE TERMS FROM KSTP 1 AND KPER 1

 FMI SETTING HEAD FOR KSTP 14 AND KPER 1 TO BINARY FILE HEADS FROM KSTP 1 AND KPER 1

 TEMPERATURE WILL BE SAVED ON UNIT 1018 AT END OF TIME STEP   14, STRESS PERIOD    1

end timestep


start timestep kper="1" kstp="15" mode="normal"


 FMI SETTING BUDGET TERMS FOR KSTP 15 AND KPER 1 TO BUDGET FILE TERMS FROM KSTP 1 AND KPER 1

 FMI SETTING HEAD FOR KSTP 15 AND KPER 1 TO BINARY FILE HEADS FROM KSTP 1 AND KPER 1

 TEMPERATURE WILL BE SAVED ON UNIT 1018 AT END OF TIME STEP   15, STRESS PERIOD    1

end timestep


start timestep kper="1" kstp="16" mode="normal"


 FMI SETTING BUDGET TERMS FOR KSTP 16 AND KPER 1 TO BUDGET FILE TERMS FROM KSTP 1 AND KPER 1

 FMI SETTING HEAD FOR KSTP 16 AND KPER 1 TO BINARY FILE HEADS FROM KSTP 1 AND KPER 1

 TEMPERATURE WILL BE SAVED ON UNIT 1018 AT END OF TIME STEP   16, STRESS PERIOD    1

end timestep


start timestep kper="1" kstp="17" mode="normal"


 FMI SETTING BUDGET TERMS FOR KSTP 17 AND KPER 1 TO BUDGET FILE TERMS FROM KSTP 1 AND KPER 1

 FMI SETTING HEAD FOR KSTP 17 AND KPER 1 TO BINARY FILE HEADS FROM KSTP 1 AND KPER 1

 TEMPERATURE WILL BE SAVED ON UNIT 1018 AT END OF TIME STEP   17, STRESS PERIOD    1

end timestep


start timestep kper="1" kstp="18" mode="normal"


 FMI SETTING BUDGET TERMS FOR KSTP 18 AND KPER 1 TO BUDGET FILE TERMS FROM KSTP 1 AND KPER 1

 FMI SETTING HEAD FOR KSTP 18 AND KPER 1 TO BINARY FILE HEADS FROM KSTP 1 AND KPER 1

 TEMPERATURE WILL BE SAVED ON UNIT 1018 AT END OF TIME STEP   18, STRESS PERIOD    1

end timestep


start timestep kper="1" kstp="19" mode="normal"


 FMI SETTING BUDGET TERMS FOR KSTP 19 AND KPER 1 TO BUDGET FILE TERMS FROM KSTP 1 AND KPER 1

 FMI SETTING HEAD FOR KSTP 19 AND KPER 1 TO BINARY FILE HEADS FROM KSTP 1 AND KPER 1

 TEMPERATURE WILL BE SAVED ON UNIT 1018 AT END OF TIME STEP   19, STRESS PERIOD    1

end timestep


start timestep kper="1" kstp="20" mode="normal"


 FMI SETTING BUDGET TERMS FOR KSTP 20 AND KPER 1 TO BUDGET FILE TERMS FROM KSTP 1 AND KPER 1

 FMI SETTING HEAD FOR KSTP 20 AND KPER 1 TO BINARY FILE HEADS FROM KSTP 1 AND KPER 1

 TEMPERATURE WILL BE SAVED ON UNIT 1018 AT END OF TIME STEP   20, STRESS PERIOD    1


  ENERGY BUDGET FOR ENTIRE MODEL AT END OF TIME STEP   20, STRESS PERIOD   1
  ---------------------------------------------------------------------------------------------------

     CUMULATIVE ENERGY      E       RATES FOR THIS TIME STEP      E/T          PACKAGE NAME    
     ------------------                 ------------------------                     ----------------

           IN:                                      IN:
           ---                                      ---
     STORAGE-CELLBLK = 19738136925.3414       STORAGE-CELLBLK =       7.3189E-03     EST                              
                 CHD =       2.8257E+13                   CHD =      327046.6515     SSM_CHD-1                        
                 CHD =           0.0000                   CHD =           0.0000     SSM_CHD-2                        
                 CTP = 47111168527.8208                   CTP =         550.2755     CTP-1                            

            TOTAL IN =       2.8324E+13              TOTAL IN =      327596.9343

          OUT:                                     OUT:
          ----                                     ----
     STORAGE-CELLBLK =     7683895.1484       STORAGE-CELLBLK =       3.4749E-09     EST                              
                 CHD =           0.0000                   CHD =           0.0000     SSM_CHD-1                        
                 CHD =       2.7855E+13                   CHD =      322168.4152     SSM_CHD-2                        
                 CTP =469336386379.1033                   CTP =        5428.5325     CTP-1                            

           TOTAL OUT =       2.8324E+13             TOTAL OUT =      327596.9476

            IN - OUT =  -259636946.2578              IN - OUT =      -1.3367E-02

 PERCENT DISCREPANCY =          -0.00     PERCENT DISCREPANCY =          -0.00




         TIME SUMMARY AT END OF TIME STEP   20 IN STRESS PERIOD    1
                    SECONDS     MINUTES      HOURS       DAYS        YEARS
                    -----------------------------------------------------------
   TIME STEP LENGTH 4.32000E+06  72000.      1200.0      50.000     0.13689    
 STRESS PERIOD TIME 8.64000E+07 1.44000E+06  24000.      1000.0      2.7379    
         TOTAL TIME 8.64000E+07 1.44000E+06  24000.      1000.0      2.7379    


end timestep

